LTspice 24.0.12 for Windows
Circuit: * C:\Users\USER\Documents\UAS\Elday\Close Loop Buck.asc
Start Time: Thu Dec 12 22:55:18 2024
Questionable use of curly braces in "b1 n001 0 v={v(1)}"
    Error: undefined symbol in: "[v](1)"
Questionable use of curly braces in "b2 2 0 v={i(l1)}"
    Error: undefined symbol in: "[i](l1)"
Questionable use of curly braces in "b§gain 2 0  v={{k}*v(1)}"
    Error: undefined symbol in: "(k)*[v](1)"
Questionable use of curly braces in "b§gain 2 0  v={{k}*v(1)}"
    Error: undefined symbol in: "(k)*[v](1)"
solver = Normal
Maximum thread count: 8
tnom = 27
temp = 27
method = modified trap
WARNING: Specified period is not longer than the sum of Trise, Tfall, and Ton for v4.  Increasing period to 1.0001e-05
Per .tran options, skipping operating point for transient analysis.
Ignoring empty pin current: Ix(x1:1)
Ignoring empty pin current: Ix(x2:1)
Ignoring empty pin current: Ix(x3:1)
Ignoring empty pin current: Ix(x4:1)
Ignoring empty pin current: Ix(x4:2)
Ignoring empty pin current: Ix(x5:1)
Ignoring empty pin current: Ix(x5:2)
Total elapsed time: 2.141 seconds.

