LTspice 24.0.12 for Windows
Circuit: * C:\Users\USER\Documents\UAS\Elday\Inverte.asc
Start Time: Thu Dec 12 23:35:40 2024
Questionable use of curly braces in "b1 d 0 v={cos(v(theta))*(2/3*v(a)+1/3*v(b)+1/3*v(c))+sin(v(theta))*(1/(3*sqrt(3))*v(b)-1/(3*sqrt(3))*v(c))}"
    Error: undefined symbol in: "cos([v](theta))*(2/3*v(a)+1/3*v(b)+1/3*v(c))+sin(v(theta))*(1/(3*sqrt(3))*v(b)-1/(3*sqrt(3))*v(c))"
Questionable use of curly braces in "b2 q 0 v={-sin(v(theta))*(2/3*v(a)+1/3*v(b)+1/3*v(c))+cos(v(theta))*(1/(3*sqrt(3))*v(b)-1/(3*sqrt(3))*v(c))}"
    Error: undefined symbol in: "-sin([v](theta))*(2/3*v(a)+1/3*v(b)+1/3*v(c))+cos(v(theta))*(1/(3*sqrt(3))*v(b)-1/(3*sqrt(3))*v(c))"
Questionable use of curly braces in "b1 d 0 v={cos(v(theta))*(2/3*v(a)+1/3*v(b)+1/3*v(c))+sin(v(theta))*(1/(3*sqrt(3))*v(b)-1/(3*sqrt(3))*v(c))}"
    Error: undefined symbol in: "cos([v](theta))*(2/3*v(a)+1/3*v(b)+1/3*v(c))+sin(v(theta))*(1/(3*sqrt(3))*v(b)-1/(3*sqrt(3))*v(c))"
Questionable use of curly braces in "b2 q 0 v={-sin(v(theta))*(2/3*v(a)+1/3*v(b)+1/3*v(c))+cos(v(theta))*(1/(3*sqrt(3))*v(b)-1/(3*sqrt(3))*v(c))}"
    Error: undefined symbol in: "-sin([v](theta))*(2/3*v(a)+1/3*v(b)+1/3*v(c))+cos(v(theta))*(1/(3*sqrt(3))*v(b)-1/(3*sqrt(3))*v(c))"
Questionable use of curly braces in "b1 a 0 v={(3/2)*(cos(v(theta))*v(d)-sin(v(theta))*v(q))}"
    Error: undefined symbol in: "(3/2)*(cos([v](theta))*v(d)-sin(v(theta))*v(q))"
Questionable use of curly braces in "b2 b 0  v={(3/2)*(cos(v(theta)-2*{pi}/3)*v(d)-sin({theta}-2*{pi}/3)*v(q))}"
    Error: undefined symbol in: "(3/2)*(cos([v](theta)-2*(pi)/3)*v(d)-sin((theta)-2*(pi)/3)*v(q))"
Questionable use of curly braces in "b3 c nc_01  v={(3/2)*(cos(v(theta)+2*{pi}/3)*v(d)-sin(v(theta)+2*{pi}/3)*v(q))}"
    Error: undefined symbol in: "(3/2)*(cos([v](theta)+2*(pi)/3)*v(d)-sin(v(theta)+2*(pi)/3)*v(q))"
Questionable use of curly braces in "b§gain 2 0  v={{k}*v(1)}"
    Error: undefined symbol in: "(k)*[v](1)"
Questionable use of curly braces in "b§gain 2 0  v={{k}*v(1)}"
    Error: undefined symbol in: "(k)*[v](1)"
Questionable use of curly braces in "b§gain 2 0  v={{k}*v(1)}"
    Error: undefined symbol in: "(k)*[v](1)"
Questionable use of curly braces in "b§gain 2 0  v={{k}*v(1)}"
    Error: undefined symbol in: "(k)*[v](1)"
Questionable use of curly braces in "b§gain 2 0  v={{k}*v(1)}"
    Error: undefined symbol in: "(k)*[v](1)"
Questionable use of curly braces in "b1 n001 0 v={v(1)}"
    Error: undefined symbol in: "[v](1)"
Questionable use of curly braces in "b2 2 0 v={i(l1)}"
    Error: undefined symbol in: "[i](l1)"
Questionable use of curly braces in "b1 n001 0 v={v(1)}"
    Error: undefined symbol in: "[v](1)"
Questionable use of curly braces in "b2 2 0 v={i(l1)}"
    Error: undefined symbol in: "[i](l1)"
Questionable use of curly braces in "b§gain 2 0  v={{k}*v(1)}"
    Error: undefined symbol in: "(k)*[v](1)"
Questionable use of curly braces in "b§gain 2 0  v={{k}*v(1)}"
    Error: undefined symbol in: "(k)*[v](1)"
Questionable use of curly braces in "b§gain 2 0  v={{k}*v(1)}"
    Error: undefined symbol in: "(k)*[v](1)"
Questionable use of curly braces in "b§gain 2 0  v={{k}*v(1)}"
    Error: undefined symbol in: "(k)*[v](1)"
solver = Normal
Maximum thread count: 8
tnom = 27
temp = 27
method = modified trap
WARNING: Specified period is not longer than the sum of Trise, Tfall, and Ton for v:x18:1.  Increasing period to 1.0001e-05
WARNING: Specified period is not longer than the sum of Trise, Tfall, and Ton for v:x19:1.  Increasing period to 1.0001e-05
WARNING: Specified period is not longer than the sum of Trise, Tfall, and Ton for v:x20:1.  Increasing period to 1.0001e-05
WARNING: Node X10:NC_01 is floating.
WARNING: Node VGC is floating.

WARNING: Less than two connections to node x10:nc_01.  This node is used by b:x10:3.
Direct Newton iteration failed to find .op point.  (Use ".option noopiter" to skip.)
Starting Gmin stepping
Gmin = 10
Gmin = 1.07374
Gmin = 0.115292
Gmin = 0.0123794
Gmin = 0.00132923
Gmin = 0.000142725
Gmin = 1.5325e-05
Gmin = 1.6455e-06
Gmin = 1.76685e-07
Gmin = 1.89714e-08
Gmin = 2.03704e-09
vernier = 0.5
vernier = 0.25
vernier = 0.125
Gmin = 1.01136e-09
vernier = 0.0625
vernier = 0.03125
vernier = 0.015625
vernier = 0.0078125
Gmin = 1.00156e-09
vernier = 0.00390625
vernier = 0.00195312
vernier = 0.000976562
vernier = 0.000488281
Gmin = 1.0001e-09
Gmin = 0
Gmin stepping failed

Starting source stepping with srcstepmethod=0
Source Step = 3.0303%
vernier = 0.25
Source Step = 2.79356%
Source Step = 2.81723%
Source Step = 2.84683%
Starting source stepping with srcstepmethod=1
Source Step = 3.0303%
vernier = 0.25
Source Step = 2.93561%
Source Step = 2.95928%
Source stepping failed

Pseudo Transient failed in finding the operating point at 9.41994 µs.
Trouble finding operating point....skipping operating point for Transient analysis.
Ignoring empty pin current: Ix(x2:a)
Ignoring empty pin current: Ix(x2:b)
Ignoring empty pin current: Ix(x2:c)
Ignoring empty pin current: Ix(x1:a)
Ignoring empty pin current: Ix(x1:b)
Ignoring empty pin current: Ix(x1:c)
Ignoring empty pin current: Ix(x1:theta)
Ignoring empty pin current: Ix(x3:a)
Ignoring empty pin current: Ix(x3:b)
Ignoring empty pin current: Ix(x3:c)
Ignoring empty pin current: Ix(x3:theta)
Ignoring empty pin current: Ix(x4:input)
Ignoring empty pin current: Ix(x4:ref)
Ignoring empty pin current: Ix(x5:input)
Ignoring empty pin current: Ix(x5:ref)
Ignoring empty pin current: Ix(x6:1)
Ignoring empty pin current: Ix(x6:2)
Ignoring empty pin current: Ix(x7:1)
Ignoring empty pin current: Ix(x7:2)
Ignoring empty pin current: Ix(x8:1)
Ignoring empty pin current: Ix(x8:2)
Ignoring empty pin current: Ix(x9:1)
Ignoring empty pin current: Ix(x9:2)
Ignoring empty pin current: Ix(x10:d)
Ignoring empty pin current: Ix(x10:q)
Ignoring empty pin current: Ix(x10:theta)
Ignoring empty pin current: Ix(x11:1)
Ignoring empty pin current: Ix(x12:1)
Ignoring empty pin current: Ix(x13:1)
Ignoring empty pin current: Ix(x14:1)
Ignoring empty pin current: Ix(x15:1)
Ignoring empty pin current: Ix(x18:comp)
Ignoring empty pin current: Ix(x19:comp)
Ignoring empty pin current: Ix(x20:comp)
Changing Tseed to 9.76563e-11
to 1.95313e-10
Heightened Def Con from 1.38658e-06 to 1.38658e-06
Heightened Def Con from 1.38658e-06 to 1.38658e-06
Heightened Def Con from 1.38658e-06 to 1.38658e-06
Heightened Def Con from 1.38658e-06 to 1.38658e-06
Heightened Def Con from 1.38658e-06 to 1.38658e-06
Heightened Def Con from 1.38658e-06 +to 1.38658e-06
Heightened Def Con from 1.38658e-06 to 1.38658e-06
Heightened Def Con from 1.38658e-06 to 1.38658e-06
Heightened Def Con from 1.38658e-06 to 1.38658e-06
Heightened Def Con from 1.38658e-06 to 1.38658e-06
Heightened Def Con from 1.38658e-06 to 1.38658e-06
Heightened Def Con from 1.38658e-06 to 1.38658e-06
Heightened Def Con from 1.38658e-06 to 1.38658e-06
Heightened Def Con from 1.38658e-06 +to 1.38658e-06
Heightened Def Con from 1.38658e-06 to 1.38658e-06
Heightened Def Con from 1.38658e-06 to 1.38658e-06
Heightened Def Con from 1.38658e-06 to 1.38658e-06
Heightened Def Con from 1.38658e-06 to 1.38658e-06
Heightened Def Con from 1.38658e-06 to 1.38658e-06
Heightened Def Con from 1.38658e-06 to 1.38658e-06
Heightened Def Con from 1.38658e-06 to 1.38658e-06
Heightened Def Con from 1.38658e-06 to 1.38658e-06
Heightened Def Con from 1.38658e-06 to 1.38658e-06
Heightened Def Con from 1.38658e-06 to 1.38658e-06
Heightened Def Con from 1.38658e-06 to 1.38658e-06
Heightened Def Con from 1.38658e-06 to 1.38658e-06
Heightened Def Con from 1.38658e-06 to 1.38658e-06
Heightened Def Con from 1.38658e-06 to 1.38658e-06
Heightened Def Con from 1.38658e-06 to 1.38658e-06
Heightened Def Con from 1.38658e-06 to 1.38658e-06
Heightened Def Con from 1.38658e-06 to 1.38658e-06
Heightened Def Con from 1.38658e-06 to 1.38658e-06
Heightened Def Con from 1.38658e-06 to 1.38658e-06
Heightened Def Con from 1.38658e-06 to 1.38658e-06
Heightened Def Con from 1.38658e-06 to 1.38658e-06
Heightened Def Con from 1.38658e-06 to 1.38658e-06
Heightened Def Con from 1.38658e-06 to 1.38658e-06
Heightened Def Con from 1.38658e-06 to 1.38658e-06
Heightened Def Con from 1.38658e-06 to 1.38658e-06
Heightened Def Con from 1.38658e-06 to 1.38658e-06
Heightened Def Con from 1.38658e-06 to 1.38658e-06
Heightened Def Con from 1.38658e-06 to 1.38658e-06
Heightened Def Con from 1.38658e-06 to 1.38658e-06
Heightened Def Con from 1.38658e-06 to 1.38658e-06
Heightened Def Con from 1.38658e-06 to 1.38658e-06
Heightened Def Con from 1.38658e-06 to 1.38658e-06
Heightened Def Con from 1.38658e-06 to 1.38658e-06
Heightened Def Con from 1.38658e-06 to 1.38658e-06
Heightened Def Con from 1.38658e-06 to 1.38658e-06
Heightened Def Con from 1.38658e-06 to 1.38658e-06
Heightened Def Con from 1.38658e-06 to 1.38658e-06
Heightened Def Con from 1.38658e-06 to 1.38658e-06
Heightened Def Con from 1.38658e-06 to 1.38658e-06
Heightened Def Con from 1.38658e-06 to 1.38658e-06
Heightened Def Con from 1.38658e-06 to 1.38658e-06
Heightened Def Con from 1.38658e-06 to 1.38658e-06
Heightened Def Con from 1.38658e-06 to 1.38658e-06
Heightened Def Con from 1.38658e-06 to 1.38658e-06
Heightened Def Con from 1.38658e-06 to 1.38658e-06
Heightened Def Con from 1.38658e-06 to 1.38658e-06
Heightened Def Con from 1.38658e-06 to 1.38658e-06
Heightened Def Con from 1.38658e-06 to 1.38658e-06
Heightened Def Con from 1.38658e-06 to 1.38658e-06
Heightened Def Con from 1.38658e-06 to 1.38658e-06
Heightened Def Con from 1.38658e-06 to 1.38658e-06
Heightened Def Con from 1.38658e-06 to 1.38658e-06
Heightened Def Con from 1.38658e-06 to 1.38658e-06
Heightened Def Con from 1.38658e-06 to 1.38658e-06
Heightened Def Con from 1.38658e-06 to 1.38658e-06
Heightened Def Con from 1.38658e-06 to 1.38658e-06
Heightened Def Con from 1.38658e-06 to 1.38658e-06
Heightened Def Con from 1.38658e-06 to 1.38658e-06
Heightened Def Con from 1.38658e-06 to 1.38658e-06
Heightened Def Con from 1.38658e-06 to 1.38658e-06
Heightened Def Con from 1.38658e-06 to 1.38658e-06
Heightened Def Con from 1.38658e-06 to 1.38658e-06
Heightened Def Con from 1.38658e-06 to 1.38658e-06
Heightened Def Con from 1.38658e-06 ++to 1.38658e-06
Heightened Def Con from 1.38658e-06 +++to 1.38658e-06
Heightened Def Con from 1.38658e-06 +++++++++++++++++++++to 1.38659e-06
Heightened Def Con from 1.38659e-06 to 1.38659e-06
Heightened Def Con from 1.38659e-06 to 1.38659e-06
Heightened Def Con from 1.38659e-06 to 1.38659e-06
Heightened Def Con from 1.38659e-06 to 1.38659e-06
Heightened Def Con from 1.38659e-06 to 1.38659e-06
Heightened Def Con from 1.38659e-06 to 1.38659e-06
Heightened Def Con from 1.38659e-06 to 1.38659e-06
Heightened Def Con from 1.38659e-06 to 1.38659e-06
Heightened Def Con from 1.38659e-06 to 1.38659e-06
Heightened Def Con from 1.38659e-06 to 1.38659e-06
Heightened Def Con from 1.38659e-06 to 1.38659e-06
Heightened Def Con from 1.38659e-06 to 1.38659e-06
Heightened Def Con from 1.38659e-06 to 1.38659e-06
Heightened Def Con from 1.38659e-06 to 1.38659e-06
Heightened Def Con from 1.38659e-06 to 1.38659e-06
Heightened Def Con from 1.38659e-06 to 1.38659e-06
Heightened Def Con from 1.38659e-06 to 1.38659e-06
Heightened Def Con from 1.38659e-06 to 1.38659e-06
Heightened Def Con from 1.38659e-06 to 1.38659e-06
Heightened Def Con from 1.38659e-06 to 1.38659e-06
Heightened Def Con from 1.38659e-06 to 1.38659e-06
Heightened Def Con from 1.38659e-06 to 1.38659e-06
Heightened Def Con from 1.38659e-06 to 1.38659e-06
Heightened Def Con from 1.38659e-06 to 1.38659e-06
Heightened Def Con from 1.38659e-06 to 1.38659e-06
Heightened Def Con from 1.38659e-06 to 1.38659e-06
Heightened Def Con from 1.38659e-06 to 1.38659e-06
Heightened Def Con from 1.38659e-06 to 1.38659e-06
Heightened Def Con from 1.38659e-06 to 1.38659e-06
Heightened Def Con from 1.38659e-06 +to 1.38659e-06
Heightened Def Con from 1.38659e-06 to 1.38659e-06
Heightened Def Con from 1.38659e-06 to 1.38659e-06
Heightened Def Con from 1.38659e-06 to 1.38659e-06
Heightened Def Con from 1.38659e-06 to 1.38659e-06
Heightened Def Con from 1.38659e-06 to 1.38659e-06
Heightened Def Con from 1.38659e-06 to 1.38659e-06
Heightened Def Con from 1.38659e-06 to 1.38659e-06
Heightened Def Con from 1.38659e-06 to 1.38659e-06
Heightened Def Con from 1.38659e-06 to 1.38659e-06
Heightened Def Con from 1.38659e-06 to 1.38659e-06
Heightened Def Con from 1.38659e-06 to 1.38659e-06
Heightened Def Con from 1.38659e-06 to 1.38659e-06
Heightened Def Con from 1.38659e-06 to 1.38659e-06
Heightened Def Con from 1.38659e-06 to 1.38659e-06
Heightened Def Con from 1.38659e-06 to 1.38659e-06
Heightened Def Con from 1.38659e-06 to 1.38659e-06
Heightened Def Con from 1.38659e-06 +to 1.38659e-06
Heightened Def Con from 1.38659e-06 to 1.38659e-06
Heightened Def Con from 1.38659e-06 +++++to 1.38659e-06
Heightened Def Con from 1.38659e-06 +++++++++++to 1.38659e-06
Heightened Def Con from 1.38659e-06 ++++++++to 1.38659e-06
Heightened Def Con from 1.38659e-06 ++++++++++++++to 1.38659e-06
Heightened Def Con from 1.38659e-06 ++++++++++++++to 1.38659e-06
Heightened Def Con from 1.38659e-06 +++++++++++++++to 1.38659e-06
Heightened Def Con from 1.38659e-06 ++++++++++++++++++++to 1.38659e-06
Heightened Def Con from 1.38659e-06 ++++++++++++++to 1.38659e-06
Heightened Def Con from 1.38659e-06 +++++++++++++to 1.38659e-06
Heightened Def Con from 1.38659e-06 ++++++++++to 1.38659e-06
Heightened Def Con from 1.38659e-06 ++++++++++++++to 1.38659e-06
Heightened Def Con from 1.38659e-06 ++++to 1.38659e-06
Heightened Def Con from 1.38659e-06 ++++to 1.38659e-06
Heightened Def Con from 1.38659e-06 ++++++++++++++to 1.38659e-06
Heightened Def Con from 1.38659e-06 +++++++++++++++++++++to 1.38659e-06
Heightened Def Con from 1.38659e-06 +++++++++++++++++to 1.38659e-06
Heightened Def Con from 1.38659e-06 +++++++++++++to 1.38659e-06
Heightened Def Con from 1.38659e-06 ++++++++++++++to 1.38659e-06
Heightened Def Con from 1.38659e-06 +++++++++++++to 1.38659e-06
Heightened Def Con from 1.38659e-06 ++++++++++++++to 1.38659e-06
Heightened Def Con from 1.38659e-06 ++++++++++++++++++to 1.38659e-06
Heightened Def Con from 1.38659e-06 ++++++++++++++++++++++to 1.38659e-06
Heightened Def Con from 1.38659e-06 to 1.38659e-06
Heightened Def Con from 1.38659e-06 to 1.38659e-06
Heightened Def Con from 1.38659e-06 to 1.38659e-06
Heightened Def Con from 1.38659e-06 to 1.38659e-06
Heightened Def Con from 1.38659e-06 to 1.38659e-06
Heightened Def Con from 1.38659e-06 to 1.38659e-06
Heightened Def Con from 1.38659e-06 to 1.38659e-06
Heightened Def Con from 1.38659e-06 to 1.38659e-06
Heightened Def Con from 1.38659e-06 to 1.38659e-06
Heightened Def Con from 1.38659e-06 to 1.38659e-06
Heightened Def Con from 1.38659e-06 to 1.38659e-06
Heightened Def Con from 1.38659e-06 to 1.38659e-06
Heightened Def Con from 1.38659e-06 to 1.38659e-06
Heightened Def Con from 1.38659e-06 to 1.38659e-06
Heightened Def Con from 1.38659e-06 to 1.38659e-06
Heightened Def Con from 1.38659e-06 +to 1.38659e-06
Heightened Def Con from 1.38659e-06 to 1.38659e-06
Heightened Def Con from 1.38659e-06 to 1.38659e-06
Heightened Def Con from 1.38659e-06 to 1.38659e-06
Heightened Def Con from 1.38659e-06 to 1.38659e-06
Heightened Def Con from 1.38659e-06 to 1.38659e-06
Heightened Def Con from 1.38659e-06 to 1.38659e-06
Heightened Def Con from 1.38659e-06 to 1.38659e-06
Heightened Def Con from 1.38659e-06 to 1.38659e-06
Heightened Def Con from 1.38659e-06 +++++to 1.38659e-06
Heightened Def Con from 1.38659e-06 +++++++++++++++++++++to 1.38659e-06
Heightened Def Con from 1.38659e-06 ++++++++++++++++++++++to 1.38659e-06
Heightened Def Con from 1.38659e-06 +++++++++++++++++++++++to 1.3866e-06
Heightened Def Con from 1.3866e-06 to 1.3866e-06
Heightened Def Con from 1.3866e-06 to 1.3866e-06
Heightened Def Con from 1.3866e-06 to 1.3866e-06
Heightened Def Con from 1.3866e-06 to 1.3866e-06
Heightened Def Con from 1.3866e-06 to 1.3866e-06
Heightened Def Con from 1.3866e-06 to 1.3866e-06
Heightened Def Con from 1.3866e-06 to 1.3866e-06
Heightened Def Con from 1.3866e-06 to 1.3866e-06
Heightened Def Con from 1.3866e-06 to 1.3866e-06
Heightened Def Con from 1.3866e-06 to 1.3866e-06
Heightened Def Con from 1.3866e-06 to 1.3866e-06
Heightened Def Con from 1.3866e-06 to 1.3866e-06
Heightened Def Con from 1.3866e-06 to 1.3866e-06
Heightened Def Con from 1.3866e-06 to 1.3866e-06
Heightened Def Con from 1.3866e-06 to 1.3866e-06
Heightened Def Con from 1.3866e-06 to 1.3866e-06
Heightened Def Con from 1.3866e-06 +++++++++to 1.3866e-06
Heightened Def Con from 1.3866e-06 +++++++++++++to 1.3866e-06
Heightened Def Con from 1.3866e-06 ++++++++++++++++to 1.3866e-06
Heightened Def Con from 1.3866e-06 to 1.3866e-06
Heightened Def Con from 1.3866e-06 +++++++++++++to 1.3866e-06
Heightened Def Con from 1.3866e-06 ++++++++to 1.3866e-06
Heightened Def Con from 1.3866e-06 +to 1.3866e-06
Heightened Def Con from 1.3866e-06 to 1.3866e-06
Heightened Def Con from 1.3866e-06 +++++++++++++to 1.3866e-06
Heightened Def Con from 1.3866e-06 +++++++++++to 1.3866e-06
Heightened Def Con from 1.3866e-06 +++++++++++++++++++++++to 1.3866e-06
Heightened Def Con from 1.3866e-06 +to 1.3866e-06
Heightened Def Con from 1.3866e-06 to 1.3866e-06
Heightened Def Con from 1.3866e-06 +to 1.3866e-06
Heightened Def Con from 1.3866e-06 to 1.3866e-06
Heightened Def Con from 1.3866e-06 to 1.3866e-06
Heightened Def Con from 1.3866e-06 to 1.3866e-06
Heightened Def Con from 1.3866e-06 to 1.3866e-06
Heightened Def Con from 1.3866e-06 to 1.3866e-06
Heightened Def Con from 1.3866e-06 +++++++++++++to 1.3866e-06
Heightened Def Con from 1.3866e-06 +++++++++++++to 1.3866e-06
Heightened Def Con from 1.3866e-06 +++++++++++++++++++++to 1.3866e-06
Heightened Def Con from 1.3866e-06 +++++++++++++to 1.3866e-06
Heightened Def Con from 1.3866e-06 ++++++++++++++to 1.3866e-06
Heightened Def Con from 1.3866e-06 +++++to 1.3866e-06
Heightened Def Con from 1.3866e-06 +++++++++++++++to 1.3866e-06
Heightened Def Con from 1.3866e-06 +++++++++++++to 1.3866e-06
Heightened Def Con from 1.3866e-06 +++++++++++++++++++++++to 1.3866e-06
Heightened Def Con from 1.3866e-06 ++++++++to 1.3866e-06
Heightened Def Con from 1.3866e-06 ++++++++to 1.3866e-06
Heightened Def Con from 1.3866e-06 ++++to 1.3866e-06
Heightened Def Con from 1.3866e-06 +++++++++++++++++to 1.3866e-06
Heightened Def Con from 1.3866e-06 ++++++++to 1.3866e-06
Heightened Def Con from 1.3866e-06 to 1.3866e-06
Heightened Def Con from 1.3866e-06 ++++++++++to 1.3866e-06
Heightened Def Con from 1.3866e-06 ++++++++to 1.3866e-06
Heightened Def Con from 1.3866e-06 ++++++++++++to 1.3866e-06
Heightened Def Con from 1.3866e-06 ++++++++++++++++to 1.3866e-06
Heightened Def Con from 1.3866e-06 +++++++++++++to 1.3866e-06
Heightened Def Con from 1.3866e-06 +++++++++++++to 1.3866e-06
Heightened Def Con from 1.3866e-06 +++++++++++++++to 1.3866e-06
Heightened Def Con from 1.3866e-06 +++++++++++++++++++++++to 1.3866e-06
Heightened Def Con from 1.3866e-06 +++++++++++++to 1.3866e-06
Heightened Def Con from 1.3866e-06 ++++to 1.3866e-06
Heightened Def Con from 1.3866e-06 ++++++++++++++to 1.3866e-06
Heightened Def Con from 1.3866e-06 +++++++++++++to 1.3866e-06
Heightened Def Con from 1.3866e-06 ++++++++++++++++++++++++to 1.3866e-06
Heightened Def Con from 1.3866e-06 to 1.3866e-06
Heightened Def Con from 1.3866e-06 to 1.3866e-06
Heightened Def Con from 1.3866e-06 to 1.3866e-06
Heightened Def Con from 1.3866e-06 to 1.3866e-06
Heightened Def Con from 1.3866e-06 to 1.3866e-06
Heightened Def Con from 1.3866e-06 to 1.3866e-06
Heightened Def Con from 1.3866e-06 ++++++++++to 1.3866e-06
Heightened Def Con from 1.3866e-06 ++++++++++to 1.3866e-06
Heightened Def Con from 1.3866e-06 +++++++++++++to 1.3866e-06
Heightened Def Con from 1.3866e-06 ++++++++++++to 1.3866e-06
Heightened Def Con from 1.3866e-06 to 1.3866e-06
Heightened Def Con from 1.3866e-06 +++++++++++++to 1.3866e-06
Heightened Def Con from 1.3866e-06 ++++++++to 1.3866e-06
Heightened Def Con from 1.3866e-06 +++++++++to 1.3866e-06
Heightened Def Con from 1.3866e-06 ++++++++++to 1.3866e-06
Heightened Def Con from 1.3866e-06 ++++++++++++++++++++++++to 1.38661e-06
Heightened Def Con from 1.38661e-06 to 1.38661e-06
Heightened Def Con from 1.38661e-06 to 1.38661e-06
Heightened Def Con from 1.38661e-06 to 1.38661e-06
Heightened Def Con from 1.38661e-06 to 1.38661e-06
Heightened Def Con from 1.38661e-06 +to 1.38661e-06
Heightened Def Con from 1.38661e-06 ++to 1.38661e-06
Heightened Def Con from 1.38661e-06 to 1.38661e-06
Heightened Def Con from 1.38661e-06 +++++++to 1.38661e-06
Heightened Def Con from 1.38661e-06 ++++++++to 1.38661e-06
Heightened Def Con from 1.38661e-06 ++++++++++to 1.38661e-06
Heightened Def Con from 1.38661e-06 to 1.38661e-06
Heightened Def Con from 1.38661e-06 to 1.38661e-06
Heightened Def Con from 1.38661e-06 ++++++++++++++to 1.38661e-06
Heightened Def Con from 1.38661e-06 ++++++++++++++to 1.38661e-06
Heightened Def Con from 1.38661e-06 ++++++++++to 1.38661e-06
Heightened Def Con from 1.38661e-06 ++++++++++++++to 1.38661e-06
Heightened Def Con from 1.38661e-06 ++++++++++++++++++++++++to 1.38661e-06
Heightened Def Con from 1.38661e-06 ++++++++++++++to 1.38661e-06
Heightened Def Con from 1.38661e-06 ++++++++++++to 1.38661e-06
Heightened Def Con from 1.38661e-06 ++++++++++++++to 1.38661e-06
Heightened Def Con from 1.38661e-06 ++++++++++to 1.38661e-06
Heightened Def Con from 1.38661e-06 ++++++++++++++to 1.38661e-06
Heightened Def Con from 1.38661e-06 ++++++++++++++++++++to 1.38661e-06
Heightened Def Con from 1.38661e-06 ++++++++to 1.38661e-06
Heightened Def Con from 1.38661e-06 ++to 1.38661e-06
Heightened Def Con from 1.38661e-06 +++++++++++++++++++++++++to 1.38661e-06
Heightened Def Con from 1.38661e-06 ++++++++++++++++++++++++to 1.38661e-06
Heightened Def Con from 1.38661e-06 ++++++++++++++++++++++++++to 1.38662e-06
Heightened Def Con from 1.38662e-06 ++++++++++++++to 1.38662e-06
Heightened Def Con from 1.38662e-06 +++++++++++++++to 1.38662e-06
Heightened Def Con from 1.38662e-06 ++++++++++++++++++to 1.38662e-06
Heightened Def Con from 1.38662e-06 +++++++++++++++++++++++++++to 1.38662e-06
Heightened Def Con from 1.38662e-06 +to 1.38662e-06
Heightened Def Con from 1.38662e-06 ++++++++++++++to 1.38662e-06
Heightened Def Con from 1.38662e-06 to 1.38662e-06
Heightened Def Con from 1.38662e-06 ++++++++++++++to 1.38662e-06
Heightened Def Con from 1.38662e-06 ++++++++++++++to 1.38662e-06
Heightened Def Con from 1.38662e-06 to 1.38662e-06
Heightened Def Con from 1.38662e-06 ++++++++++++++to 1.38662e-06
Heightened Def Con from 1.38662e-06 +++++++++++++to 1.38662e-06
Heightened Def Con from 1.38662e-06 ++++++++++++to 1.38662e-06
Heightened Def Con from 1.38662e-06 +++++++++++++++++++++++++++to 1.38662e-06
Heightened Def Con from 1.38662e-06 ++++++++++++++++to 1.38662e-06
Heightened Def Con from 1.38662e-06 +++++++to 1.38662e-06
Heightened Def Con from 1.38662e-06 to 1.38662e-06
Heightened Def Con from 1.38662e-06 ++++++to 1.38662e-06
Heightened Def Con from 1.38662e-06 to 1.38662e-06
Heightened Def Con from 1.38662e-06 +++++++++++++++++++++++++++to 1.38662e-06
Heightened Def Con from 1.38662e-06 ++++++++to 1.38662e-06
Heightened Def Con from 1.38662e-06 +++++++++++++++++++++++++++to 1.38662e-06
Heightened Def Con from 1.38662e-06 ++++++++++to 1.38662e-06
Heightened Def Con from 1.38662e-06 ++++++++++++++++++++++++++++to 1.38663e-06
Heightened Def Con from 1.38663e-06 to 1.38663e-06
Heightened Def Con from 1.38663e-06 +++++++++++++to 1.38663e-06
Heightened Def Con from 1.38663e-06 +++++++++++++to 1.38663e-06
Heightened Def Con from 1.38663e-06 +++++++++++++to 1.38663e-06
Heightened Def Con from 1.38663e-06 +++++++++++++to 1.38663e-06
Heightened Def Con from 1.38663e-06 ++++++++++++++to 1.38663e-06
Heightened Def Con from 1.38663e-06 ++++++++++++++to 1.38663e-06
Heightened Def Con from 1.38663e-06 +++++++++++++++++++++++++++++to 1.39563e-06
Heightened Def Con from 8.41316e-06 to 8.41728e-06
Heightened Def Con from 8.4175e-06 to 8.4175e-06
Heightened Def Con from 8.4175e-06 to 8.4175e-06
Heightened Def Con from 8.4175e-06 to 8.4175e-06
Heightened Def Con from 8.4175e-06 +++++++to 8.4175e-06
Heightened Def Con from 8.4175e-06 ++++++++to 8.4175e-06
Heightened Def Con from 8.4175e-06 ++++++++++to 8.4175e-06
Heightened Def Con from 8.4175e-06 ++++++++++++++to 8.4175e-06
Heightened Def Con from 8.4175e-06 to 8.4175e-06
Heightened Def Con from 8.4175e-06 ++++++++++to 8.4175e-06
Heightened Def Con from 8.4175e-06 +++++++++++++to 8.4175e-06
Heightened Def Con from 8.4175e-06 ++++++++++to 8.4175e-06
Heightened Def Con from 8.4175e-06 +++++++++++++++++to 8.4175e-06
Heightened Def Con from 8.4175e-06 ++++++++to 8.4175e-06
Heightened Def Con from 8.4175e-06 +++++++++++++to 8.4175e-06
Heightened Def Con from 8.4175e-06 ++++++++++to 8.4175e-06
Heightened Def Con from 8.4175e-06 to 8.4175e-06
Heightened Def Con from 8.4175e-06 ++++++++++++++to 8.4175e-06
Heightened Def Con from 8.4175e-06 ++++to 8.4175e-06
Heightened Def Con from 8.4175e-06 +++++++++++++to 8.4175e-06
Heightened Def Con from 8.4175e-06 to 8.4175e-06
Heightened Def Con from 8.4175e-06 +++++++++++++to 8.4175e-06
Heightened Def Con from 8.4175e-06 ++++++++++++++to 8.4175e-06
Heightened Def Con from 8.4175e-06 +++++++++++++to 8.4175e-06
Heightened Def Con from 8.4175e-06 +++++++++++++to 8.4175e-06
Heightened Def Con from 8.4175e-06 +++++++++++++to 8.4175e-06
Heightened Def Con from 8.4175e-06 +++++++++++++to 8.4175e-06
Heightened Def Con from 8.4175e-06 ++++++++++++++to 8.4175e-06
Heightened Def Con from 8.4175e-06 ++++++++++++++to 8.4175e-06
Heightened Def Con from 8.4175e-06 to 8.4175e-06
Heightened Def Con from 8.4175e-06 to 8.4175e-06
Heightened Def Con from 8.4175e-06 ++++++++++++++to 8.4175e-06
Heightened Def Con from 8.4175e-06 ++++++++to 8.4175e-06
Heightened Def Con from 8.4175e-06 +++++++++++++to 8.4175e-06
Heightened Def Con from 8.4175e-06 to 8.4175e-06
Heightened Def Con from 8.4175e-06 ++++++++++to 8.4175e-06
Heightened Def Con from 8.4175e-06 ++++++++++to 8.4175e-06
Heightened Def Con from 8.4175e-06 +++++++++++++to 8.4175e-06
Heightened Def Con from 8.4175e-06 ++++++++++to 8.4175e-06
Heightened Def Con from 8.4175e-06 to 8.4175e-06
Heightened Def Con from 8.4175e-06 ++++++++++++to 8.4175e-06
Heightened Def Con from 8.4175e-06 ++++++++++++++++++++++++++to 8.4175e-06
Heightened Def Con from 8.4175e-06 +++++++++++++to 8.4175e-06
Heightened Def Con from 8.4175e-06 ++++++++++++++++++to 8.4175e-06
Heightened Def Con from 8.4175e-06 to 8.4175e-06
Heightened Def Con from 8.4175e-06 ++++to 8.4175e-06
Heightened Def Con from 8.4175e-06 +++++++++++++to 8.4175e-06
Heightened Def Con from 8.4175e-06 ++++++++to 8.4175e-06
Heightened Def Con from 8.4175e-06 to 8.4175e-06
Heightened Def Con from 8.4175e-06 to 8.4175e-06
Heightened Def Con from 8.4175e-06 +++++++++++++to 8.4175e-06
Heightened Def Con from 8.4175e-06 ++++++++to 8.4175e-06
Heightened Def Con from 8.4175e-06 +++++++++to 8.4175e-06
Heightened Def Con from 8.4175e-06 +++++++++++++++to 8.4175e-06
Heightened Def Con from 8.4175e-06 ++++++++++to 8.4175e-06
Heightened Def Con from 8.4175e-06 ++++++++++to 8.4175e-06
Heightened Def Con from 8.4175e-06 ++++++++++++++to 8.4175e-06
Heightened Def Con from 8.4175e-06 ++++++++++to 8.4175e-06
Heightened Def Con from 8.4175e-06 ++++++++++to 8.4175e-06
Heightened Def Con from 8.4175e-06 ++++++++++to 8.4175e-06
Heightened Def Con from 8.4175e-06 +++++++++++to 8.4175e-06
Heightened Def Con from 8.4175e-06 ++++++++to 8.4175e-06
Heightened Def Con from 8.4175e-06 to 8.4175e-06
Heightened Def Con from 8.4175e-06 ++++++++++to 8.4175e-06
Heightened Def Con from 8.4175e-06 to 8.4175e-06
Heightened Def Con from 8.4175e-06 +to 8.4175e-06
Heightened Def Con from 8.4175e-06 +++++++++++to 8.4175e-06
Heightened Def Con from 8.4175e-06 ++++++++++++++++++++to 8.4175e-06
Heightened Def Con from 8.4175e-06 ++++++++++++to 8.4175e-06
Heightened Def Con from 8.4175e-06 ++++++++to 8.4175e-06
Heightened Def Con from 8.4175e-06 ++++++++++to 8.4175e-06
Heightened Def Con from 8.4175e-06 ++++++++to 8.4175e-06
Heightened Def Con from 8.4175e-06 ++++++++to 8.4175e-06
Heightened Def Con from 8.4175e-06 +++++++++++++++to 8.4175e-06
Heightened Def Con from 8.4175e-06 to 8.4175e-06
Heightened Def Con from 8.4175e-06 ++++++++++++++to 8.4175e-06
Heightened Def Con from 8.4175e-06 to 8.4175e-06
Heightened Def Con from 8.4175e-06 +++++++++++++to 8.4175e-06
Heightened Def Con from 8.4175e-06 +++++++++++++to 8.4175e-06
Heightened Def Con from 8.4175e-06 ++++++++++++++to 8.4175e-06
Heightened Def Con from 8.4175e-06 to 8.4175e-06
Heightened Def Con from 8.4175e-06 +++++++++++++++to 8.4175e-06
Heightened Def Con from 8.4175e-06 ++++++++++++++++++to 8.4175e-06
Heightened Def Con from 8.4175e-06 ++++++++++++++to 8.4175e-06
Heightened Def Con from 8.4175e-06 to 8.4175e-06
Heightened Def Con from 8.4175e-06 to 8.4175e-06
Heightened Def Con from 8.4175e-06 ++++++++++to 8.4175e-06
Heightened Def Con from 8.4175e-06 +++++++++++++to 8.4175e-06
Heightened Def Con from 8.4175e-06 ++++++++++to 8.4175e-06
Heightened Def Con from 8.4175e-06 ++++++++++++++++++to 8.4175e-06
Heightened Def Con from 8.4175e-06 to 8.4175e-06
Heightened Def Con from 8.4175e-06 ++++++++++to 8.4175e-06
Heightened Def Con from 8.4175e-06 to 8.4175e-06
Heightened Def Con from 8.4175e-06 ++++++++++++to 8.4175e-06
Heightened Def Con from 8.4175e-06 ++++++++++++++++++++to 8.4175e-06
Heightened Def Con from 8.4175e-06 ++++++++to 8.4175e-06
Heightened Def Con from 8.4175e-06 to 8.4175e-06
Heightened Def Con from 8.4175e-06 +++++++++++++to 8.4175e-06
Heightened Def Con from 8.4175e-06 ++++++++++to 8.4175e-06
Heightened Def Con from 8.4175e-06 ++++++++++++++++++to 8.4175e-06
Heightened Def Con from 8.4175e-06 ++++++++++++++++++++to 8.4175e-06
Heightened Def Con from 8.4175e-06 ++++++++++++++to 8.4175e-06
Heightened Def Con from 8.4175e-06 ++++++++++to 8.4175e-06
Heightened Def Con from 8.4175e-06 +++++++++++++to 8.4175e-06
Heightened Def Con from 8.4175e-06 ++++++++++to 8.4175e-06
Heightened Def Con from 8.4175e-06 ++++++++++++++to 8.4175e-06
Heightened Def Con from 8.4175e-06 ++++++++++to 8.4175e-06
Heightened Def Con from 8.4175e-06 +++++to 8.4175e-06
Heightened Def Con from 8.4175e-06 ++++++++to 8.4175e-06
Heightened Def Con from 8.4175e-06 ++++++++++++++to 8.4175e-06
Heightened Def Con from 8.4175e-06 to 8.4175e-06
Heightened Def Con from 8.4175e-06 ++++++++++++++++to 8.4175e-06
Heightened Def Con from 8.4175e-06 ++++++++++++to 8.4175e-06
Heightened Def Con from 8.4175e-06 ++++++++to 8.4175e-06
Heightened Def Con from 8.4175e-06 +++++++++++++++++++++++++to 8.4175e-06
Heightened Def Con from 8.4175e-06 to 8.4175e-06
Heightened Def Con from 8.4175e-06 +++++++++++++to 8.4175e-06
Heightened Def Con from 8.4175e-06 ++++++++++++++to 8.4175e-06
Heightened Def Con from 8.4175e-06 +++++++++++++to 8.4175e-06
Heightened Def Con from 8.4175e-06 ++++++++++++++++++++to 8.4175e-06
Heightened Def Con from 8.4175e-06 to 8.4175e-06
Heightened Def Con from 8.4175e-06 ++++++++++to 8.4175e-06
Heightened Def Con from 8.4175e-06 +++++++++to 8.4175e-06
Heightened Def Con from 8.4175e-06 ++++++to 8.4175e-06
Heightened Def Con from 8.4175e-06 +++++++++++++to 8.4175e-06
Heightened Def Con from 8.4175e-06 ++++++++++++++++++++to 8.4175e-06
Heightened Def Con from 8.4175e-06 +++++++++++++to 8.4175e-06
Heightened Def Con from 8.4175e-06 ++++++++++to 8.4175e-06
Heightened Def Con from 8.4175e-06 to 8.4175e-06
Heightened Def Con from 8.4175e-06 to 8.4175e-06
Heightened Def Con from 8.4175e-06 +++++++++++++to 8.4175e-06
Heightened Def Con from 8.4175e-06 ++++++++++to 8.4175e-06
Heightened Def Con from 8.4175e-06 +++++++++++++to 8.4175e-06
Heightened Def Con from 8.4175e-06 to 8.4175e-06
Heightened Def Con from 8.4175e-06 ++++++++++++++to 8.4175e-06
Heightened Def Con from 8.4175e-06 ++++++++++to 8.4175e-06
Heightened Def Con from 8.4175e-06 to 8.4175e-06
Heightened Def Con from 8.4175e-06 to 8.4175e-06
Heightened Def Con from 8.4175e-06 ++++++++to 8.4175e-06
Heightened Def Con from 8.4175e-06 ++++++++++to 8.4175e-06
Heightened Def Con from 8.4175e-06 +++++++++++to 8.4175e-06
Heightened Def Con from 8.4175e-06 ++++++++++++++to 8.4175e-06
Heightened Def Con from 8.4175e-06 ++++++++++++++to 8.4175e-06
Heightened Def Con from 8.4175e-06 ++++++++++++++to 8.4175e-06
Heightened Def Con from 8.4175e-06 ++++++++++to 8.4175e-06
Heightened Def Con from 8.4175e-06 +++++++++++++to 8.4175e-06
Heightened Def Con from 8.4175e-06 ++++++++to 8.4175e-06
Heightened Def Con from 8.4175e-06 ++++++to 8.4175e-06
Heightened Def Con from 8.4175e-06 ++++++++++++to 8.4175e-06
Heightened Def Con from 8.4175e-06 ++++++++++to 8.4175e-06
Heightened Def Con from 8.4175e-06 ++++++++++++to 8.4175e-06
Heightened Def Con from 8.4175e-06 to 8.4175e-06
Heightened Def Con from 8.4175e-06 to 8.4175e-06
Heightened Def Con from 8.4175e-06 ++++++++++++++to 8.4175e-06
Heightened Def Con from 8.4175e-06 +++++++++++++to 8.4175e-06
Heightened Def Con from 8.4175e-06 to 8.4175e-06
Heightened Def Con from 8.4175e-06 ++++++++to 8.4175e-06
Heightened Def Con from 8.4175e-06 +++++++++++++to 8.4175e-06
Heightened Def Con from 8.4175e-06 ++++++++++to 8.4175e-06
Heightened Def Con from 8.4175e-06 ++++++++to 8.4175e-06
Heightened Def Con from 8.4175e-06 +++++++++++++to 8.4175e-06
Heightened Def Con from 8.4175e-06 +++++++++++++++to 8.4175e-06
Heightened Def Con from 8.4175e-06 to 8.4175e-06
Heightened Def Con from 8.4175e-06 +++++++++++++to 8.4175e-06
Heightened Def Con from 8.4175e-06 +++++++++++++to 8.4175e-06
Heightened Def Con from 8.4175e-06 +++++++++++++++to 8.4175e-06
Heightened Def Con from 8.4175e-06 ++++++++++to 8.4175e-06
Heightened Def Con from 8.4175e-06 +++++++++++++to 8.4175e-06
Heightened Def Con from 8.4175e-06 +++++++++++to 8.4175e-06
Heightened Def Con from 8.4175e-06 ++++++++++++to 8.4175e-06
Heightened Def Con from 8.4175e-06 to 8.4175e-06
Heightened Def Con from 8.4175e-06 +++++++++++++to 8.4175e-06
Heightened Def Con from 8.4175e-06 ++++++++++++++to 8.4175e-06
Heightened Def Con from 8.4175e-06 to 8.4175e-06
Heightened Def Con from 8.4175e-06 to 8.4175e-06
Heightened Def Con from 8.4175e-06 to 8.4175e-06
Heightened Def Con from 8.4175e-06 ++++++++++++++to 8.4175e-06
Heightened Def Con from 8.4175e-06 to 8.4175e-06
Heightened Def Con from 8.4175e-06 +++++++++++++to 8.4175e-06
Heightened Def Con from 8.4175e-06 +++++++++++++to 8.4175e-06
Heightened Def Con from 8.4175e-06 ++++++++++++++++++to 8.4175e-06
Heightened Def Con from 8.4175e-06 ++++++++to 8.4175e-06
Heightened Def Con from 8.4175e-06 ++++++++++++++++++to 8.4175e-06
Heightened Def Con from 8.4175e-06 ++++++++to 8.4175e-06
Heightened Def Con from 8.4175e-06 +++++++++++++to 8.4175e-06
Heightened Def Con from 8.4175e-06 +to 8.4175e-06
Heightened Def Con from 8.4175e-06 ++++++++++++++to 8.4175e-06
Heightened Def Con from 8.4175e-06 ++++++++++to 8.4175e-06
Heightened Def Con from 8.4175e-06 +++++++++to 8.4175e-06
Heightened Def Con from 8.4175e-06 ++++++++++++++to 8.4175e-06
Heightened Def Con from 8.4175e-06 +++++++++++to 8.4175e-06
Heightened Def Con from 8.4175e-06 ++to 8.4175e-06
Heightened Def Con from 8.4175e-06 +++++++++++++to 8.4175e-06
Heightened Def Con from 8.4175e-06 ++++++++++to 8.4175e-06
Heightened Def Con from 8.4175e-06 ++++++++++++++to 8.4175e-06
Heightened Def Con from 8.4175e-06 +++++++++++to 8.4175e-06
Heightened Def Con from 8.4175e-06 ++++++++++++++++++++to 8.4175e-06
Heightened Def Con from 8.4175e-06 +++++++++++++++++++++++++to 8.4175e-06
Heightened Def Con from 8.4175e-06 ++++++++++to 8.4175e-06
Heightened Def Con from 8.4175e-06 to 8.4175e-06
Heightened Def Con from 8.4175e-06 ++++++++to 8.4175e-06
Heightened Def Con from 8.4175e-06 ++++++++++++to 8.4175e-06
Heightened Def Con from 8.4175e-06 ++++++++++++++to 8.4175e-06
Heightened Def Con from 8.4175e-06 +++++++++++++to 8.4175e-06
Heightened Def Con from 8.4175e-06 to 8.4175e-06
Heightened Def Con from 8.4175e-06 ++++++++++to 8.4175e-06
Heightened Def Con from 8.4175e-06 +++++++++++++to 8.4175e-06
Heightened Def Con from 8.4175e-06 ++++++++++to 8.4175e-06
Heightened Def Con from 8.4175e-06 ++++++++++++++to 8.4175e-06
Heightened Def Con from 8.4175e-06 +++++++++++++to 8.4175e-06
Heightened Def Con from 8.4175e-06 ++++++++++++++++++++to 8.4175e-06
Heightened Def Con from 8.4175e-06 ++++++++++++to 8.4175e-06
Heightened Def Con from 8.4175e-06 +++++++++++++to 8.4175e-06
Heightened Def Con from 8.4175e-06 +++++++++++to 8.4175e-06
Heightened Def Con from 8.4175e-06 +++++++++++to 8.4175e-06
Heightened Def Con from 8.4175e-06 ++++++++++++to 8.4175e-06
Heightened Def Con from 8.4175e-06 ++++++++++++to 8.4175e-06
Heightened Def Con from 8.4175e-06 ++++++++++++++to 8.4175e-06
Heightened Def Con from 8.4175e-06 ++++++++++++++to 8.4175e-06
Heightened Def Con from 8.4175e-06 ++++++++++++++to 8.4175e-06
Heightened Def Con from 8.4175e-06 +++++++++++++++++++++++++++to 8.41777e-06
Heightened Def Con from 8.4179e-06 to 8.4179e-06
Heightened Def Con from 8.4179e-06 to 8.4179e-06
Heightened Def Con from 8.4179e-06 to 8.4179e-06
Heightened Def Con from 8.4179e-06 ++++++++++++to 8.4179e-06
Heightened Def Con from 8.4179e-06 ++++++++++to 8.4179e-06
Heightened Def Con from 8.4179e-06 +++++++++++to 8.4179e-06
Heightened Def Con from 8.4179e-06 +++++++++++++to 8.4179e-06
Heightened Def Con from 8.4179e-06 +++++++++++++to 8.4179e-06
Heightened Def Con from 8.4179e-06 ++++++++++++++to 8.4179e-06
Heightened Def Con from 8.4179e-06 to 8.4179e-06
Heightened Def Con from 8.4179e-06 to 8.4179e-06
Heightened Def Con from 8.4179e-06 +++++++++++to 8.4179e-06
Heightened Def Con from 8.4179e-06 ++++++++++++to 8.4179e-06
Heightened Def Con from 8.4179e-06 +++++++++++to 8.4179e-06
Heightened Def Con from 8.4179e-06 +++++++++++++to 8.4179e-06
Heightened Def Con from 8.4179e-06 to 8.4179e-06
Heightened Def Con from 8.4179e-06 to 8.4179e-06
Heightened Def Con from 8.4179e-06 ++++++++++++to 8.4179e-06
Heightened Def Con from 8.4179e-06 +++++++++++++to 8.4179e-06
Heightened Def Con from 8.4179e-06 to 8.4179e-06
Heightened Def Con from 8.4179e-06 to 8.4179e-06
Heightened Def Con from 8.4179e-06 ++++++++++++++to 8.4179e-06
Heightened Def Con from 8.4179e-06 +++++++++++++to 8.4179e-06
Heightened Def Con from 8.4179e-06 +++++++++++++to 8.4179e-06
Heightened Def Con from 8.4179e-06 +++++++++++++to 8.4179e-06
Heightened Def Con from 8.4179e-06 ++++++++++to 8.4179e-06
Heightened Def Con from 8.4179e-06 to 8.4179e-06
Heightened Def Con from 8.4179e-06 to 8.4179e-06
Heightened Def Con from 8.4179e-06 +++++++++++++to 8.4179e-06
Heightened Def Con from 8.4179e-06 +++++++++++++to 8.4179e-06
Heightened Def Con from 8.4179e-06 +++++++++++++to 8.4179e-06
Heightened Def Con from 8.4179e-06 +++++++++++++to 8.4179e-06
Heightened Def Con from 8.4179e-06 to 8.4179e-06
Heightened Def Con from 8.4179e-06 +++++++++++++to 8.4179e-06
Heightened Def Con from 8.4179e-06 +++++++++++++to 8.4179e-06
Heightened Def Con from 8.4179e-06 +++++++++++++++to 8.4179e-06
Heightened Def Con from 8.4179e-06 +++++++++++++to 8.4179e-06
Heightened Def Con from 8.4179e-06 ++++++++++++++to 8.4179e-06
Heightened Def Con from 8.4179e-06 ++++++++++++++to 8.4179e-06
Heightened Def Con from 8.4179e-06 +++++++++++++to 8.4179e-06
Heightened Def Con from 8.4179e-06 +++++++++++++to 8.4179e-06
Heightened Def Con from 8.4179e-06 ++++++++++to 8.4179e-06
Heightened Def Con from 8.4179e-06 to 8.4179e-06
Heightened Def Con from 8.4179e-06 +++++++to 8.4179e-06
Heightened Def Con from 8.4179e-06 +++++++++++++++++to 8.4179e-06
Heightened Def Con from 8.4179e-06 ++++++++++++++to 8.4179e-06
Heightened Def Con from 8.4179e-06 ++++++++++to 8.4179e-06
Heightened Def Con from 8.4179e-06 to 8.4179e-06
Heightened Def Con from 8.4179e-06 +++++++++++++++++to 8.4179e-06
Heightened Def Con from 8.4179e-06 ++++++++to 8.4179e-06
Heightened Def Con from 8.4179e-06 ++++++++++to 8.4179e-06
Heightened Def Con from 8.4179e-06 ++++++to 8.4179e-06
Heightened Def Con from 8.4179e-06 ++++++++++to 8.4179e-06
Heightened Def Con from 8.4179e-06 +++++++++++++++to 8.4179e-06
Heightened Def Con from 8.4179e-06 ++++++++++to 8.4179e-06
Heightened Def Con from 8.4179e-06 to 8.4179e-06
Heightened Def Con from 8.4179e-06 +to 8.4179e-06
Heightened Def Con from 8.4179e-06 ++++++++to 8.4179e-06
Heightened Def Con from 8.4179e-06 +++++++++++++to 8.4179e-06
Heightened Def Con from 8.4179e-06 to 8.4179e-06
Heightened Def Con from 8.4179e-06 +++++++++to 8.4179e-06
Heightened Def Con from 8.4179e-06 ++++++++++to 8.4179e-06
Heightened Def Con from 8.4179e-06 ++++++++to 8.4179e-06
Heightened Def Con from 8.4179e-06 +++++++++++to 8.4179e-06
Heightened Def Con from 8.4179e-06 +++++++++++to 8.4179e-06
Heightened Def Con from 8.4179e-06 +++++++++++++to 8.4179e-06
Heightened Def Con from 8.4179e-06 +++++++++++++++++to 8.4179e-06
Heightened Def Con from 8.4179e-06 to 8.4179e-06
Heightened Def Con from 8.4179e-06 ++++to 8.4179e-06
Heightened Def Con from 8.4179e-06 to 8.4179e-06
Heightened Def Con from 8.4179e-06 +++++++++++to 8.4179e-06
Heightened Def Con from 8.4179e-06 to 8.4179e-06
Heightened Def Con from 8.4179e-06 to 8.4179e-06
Heightened Def Con from 8.4179e-06 ++++++++to 8.4179e-06
Heightened Def Con from 8.4179e-06 to 8.4179e-06
Heightened Def Con from 8.4179e-06 +++++++++to 8.4179e-06
Heightened Def Con from 8.4179e-06 ++++++++++to 8.4179e-06
Heightened Def Con from 8.4179e-06 ++++++++to 8.4179e-06
Heightened Def Con from 8.4179e-06 ++++++++to 8.4179e-06
Heightened Def Con from 8.4179e-06 ++++++++++++++to 8.4179e-06
Heightened Def Con from 8.4179e-06 to 8.4179e-06
Heightened Def Con from 8.4179e-06 to 8.4179e-06
Heightened Def Con from 8.4179e-06 +++++++++++++to 8.4179e-06
Heightened Def Con from 8.4179e-06 +++++++++++++to 8.4179e-06
Heightened Def Con from 8.4179e-06 to 8.4179e-06
Heightened Def Con from 8.4179e-06 +++++++++++to 8.4179e-06
Heightened Def Con from 8.4179e-06 +++++++++++to 8.4179e-06
Heightened Def Con from 8.4179e-06 ++++++++++to 8.4179e-06
Heightened Def Con from 8.4179e-06 ++++++++to 8.4179e-06
Heightened Def Con from 8.4179e-06 ++++++++++to 8.4179e-06
Heightened Def Con from 8.4179e-06 ++++++++++to 8.4179e-06
Heightened Def Con from 8.4179e-06 to 8.4179e-06
Heightened Def Con from 8.4179e-06 to 8.4179e-06
Heightened Def Con from 8.4179e-06 +++++++to 8.4179e-06
Heightened Def Con from 8.4179e-06 +++++++++++to 8.4179e-06
Heightened Def Con from 8.4179e-06 +++++++++++to 8.4179e-06
Heightened Def Con from 8.4179e-06 ++++++++++to 8.4179e-06
Heightened Def Con from 8.4179e-06 +++++++++++++to 8.4179e-06
Heightened Def Con from 8.4179e-06 ++++to 8.4179e-06
Heightened Def Con from 8.4179e-06 +++++++++++++to 8.4179e-06
Heightened Def Con from 8.4179e-06 +++++++to 8.4179e-06
Heightened Def Con from 8.4179e-06 ++++++++++to 8.4179e-06
Heightened Def Con from 8.4179e-06 ++++++++++to 8.4179e-06
Heightened Def Con from 8.4179e-06 ++++++++to 8.4179e-06
Heightened Def Con from 8.4179e-06 +++++++++to 8.4179e-06
Heightened Def Con from 8.4179e-06 +++++++++++to 8.4179e-06
Heightened Def Con from 8.4179e-06 ++++++++to 8.4179e-06
Heightened Def Con from 8.4179e-06 +++++++++++++to 8.4179e-06
Heightened Def Con from 8.4179e-06 +++++++++++to 8.4179e-06
Heightened Def Con from 8.4179e-06 +++++++++++++to 8.4179e-06
Heightened Def Con from 8.4179e-06 ++++++++++to 8.4179e-06
Heightened Def Con from 8.4179e-06 ++++++++++++++to 8.4179e-06
Heightened Def Con from 8.4179e-06 +++++++++++++to 8.4179e-06
Heightened Def Con from 8.4179e-06 +++++++++++to 8.4179e-06
Heightened Def Con from 8.4179e-06 ++++++++++to 8.4179e-06
Heightened Def Con from 8.4179e-06 ++++++to 8.4179e-06
Heightened Def Con from 8.4179e-06 to 8.4179e-06
Heightened Def Con from 8.4179e-06 ++++++++to 8.4179e-06
Heightened Def Con from 8.4179e-06 ++++++++to 8.4179e-06
Heightened Def Con from 8.4179e-06 ++++to 8.4179e-06
Heightened Def Con from 8.4179e-06 ++++++++++++++to 8.4179e-06
Heightened Def Con from 8.4179e-06 to 8.4179e-06
Heightened Def Con from 8.4179e-06 to 8.4179e-06
Heightened Def Con from 8.4179e-06 to 8.4179e-06
Heightened Def Con from 8.4179e-06 ++++++++++to 8.4179e-06
Heightened Def Con from 8.4179e-06 to 8.4179e-06
Heightened Def Con from 8.4179e-06 to 8.4179e-06
Heightened Def Con from 8.4179e-06 ++++++++++++++to 8.4179e-06
Heightened Def Con from 8.4179e-06 +++++++++++to 8.4179e-06
Heightened Def Con from 8.4179e-06 +++++++++++++to 8.4179e-06
Heightened Def Con from 8.4179e-06 ++++++++++to 8.4179e-06
Heightened Def Con from 8.4179e-06 ++++++++to 8.4179e-06
Heightened Def Con from 8.4179e-06 ++++++++to 8.4179e-06
Heightened Def Con from 8.4179e-06 +++++++++++++to 8.4179e-06
Heightened Def Con from 8.4179e-06 to 8.4179e-06
Heightened Def Con from 8.4179e-06 ++++++++++to 8.4179e-06
Heightened Def Con from 8.4179e-06 +++++++++++to 8.4179e-06
Heightened Def Con from 8.4179e-06 +++++++++++++to 8.4179e-06
Heightened Def Con from 8.4179e-06 to 8.4179e-06
Heightened Def Con from 8.4179e-06 ++++++++++++++to 8.4179e-06
Heightened Def Con from 8.4179e-06 +++++++++++++to 8.4179e-06
Heightened Def Con from 8.4179e-06 to 8.4179e-06
Heightened Def Con from 8.4179e-06 to 8.4179e-06
Heightened Def Con from 8.4179e-06 ++++++++++to 8.4179e-06
Heightened Def Con from 8.4179e-06 ++++++++++to 8.4179e-06
Heightened Def Con from 8.4179e-06 to 8.4179e-06
Heightened Def Con from 8.4179e-06 +++++++++++++to 8.4179e-06
Heightened Def Con from 8.4179e-06 to 8.4179e-06
Heightened Def Con from 8.4179e-06 +++++++++to 8.4179e-06
Heightened Def Con from 8.4179e-06 to 8.4179e-06
Heightened Def Con from 8.4179e-06 to 8.4179e-06
Heightened Def Con from 8.4179e-06 to 8.4179e-06
Heightened Def Con from 8.4179e-06 ++++++++to 8.4179e-06
Heightened Def Con from 8.4179e-06 ++++++++++to 8.4179e-06
Heightened Def Con from 8.4179e-06 to 8.4179e-06
Heightened Def Con from 8.4179e-06 to 8.4179e-06
Heightened Def Con from 8.4179e-06 to 8.4179e-06
Heightened Def Con from 8.4179e-06 ++++++++++++++to 8.4179e-06
Heightened Def Con from 8.4179e-06 ++++++++++++++++++++++++to 8.4179e-06
Heightened Def Con from 8.4179e-06 to 8.4179e-06
Heightened Def Con from 8.4179e-06 to 8.4179e-06
Heightened Def Con from 8.4179e-06 to 8.4179e-06
Heightened Def Con from 8.4179e-06 ++++++++++to 8.4179e-06
Heightened Def Con from 8.4179e-06 to 8.4179e-06
Heightened Def Con from 8.4179e-06 ++++++++++to 8.4179e-06
Heightened Def Con from 8.4179e-06 to 8.4179e-06
Heightened Def Con from 8.4179e-06 +++++++++++to 8.4179e-06
Heightened Def Con from 8.4179e-06 ++++++to 8.4179e-06
Heightened Def Con from 8.4179e-06 ++++++++++to 8.4179e-06
Heightened Def Con from 8.4179e-06 to 8.4179e-06
Heightened Def Con from 8.4179e-06 +++++++++++to 8.4179e-06
Heightened Def Con from 8.4179e-06 to 8.4179e-06
Heightened Def Con from 8.4179e-06 to 8.4179e-06
Heightened Def Con from 8.4179e-06 to 8.4179e-06
Heightened Def Con from 8.4179e-06 ++++++++++to 8.4179e-06
Heightened Def Con from 8.4179e-06 to 8.4179e-06
Heightened Def Con from 8.4179e-06 to 8.4179e-06
Heightened Def Con from 8.4179e-06 +++++++to 8.4179e-06
Heightened Def Con from 8.4179e-06 to 8.4179e-06
Heightened Def Con from 8.4179e-06 ++++++++to 8.4179e-06
Heightened Def Con from 8.4179e-06 to 8.4179e-06
Heightened Def Con from 8.4179e-06 +++++to 8.4179e-06
Heightened Def Con from 8.4179e-06 +++++++++++++to 8.4179e-06
Heightened Def Con from 8.4179e-06 ++++++++++to 8.4179e-06
Heightened Def Con from 8.4179e-06 to 8.4179e-06
Heightened Def Con from 8.4179e-06 ++++++++to 8.4179e-06
Heightened Def Con from 8.4179e-06 to 8.4179e-06
Heightened Def Con from 8.4179e-06 to 8.4179e-06
Heightened Def Con from 8.4179e-06 ++++++++to 8.4179e-06
Heightened Def Con from 8.4179e-06 ++++++++to 8.4179e-06
Heightened Def Con from 8.4179e-06 ++++++++++to 8.4179e-06
Heightened Def Con from 8.4179e-06 to 8.4179e-06
Heightened Def Con from 8.4179e-06 ++++++++to 8.4179e-06
Heightened Def Con from 8.4179e-06 to 8.4179e-06
Heightened Def Con from 8.4179e-06 +++++++++++++to 8.4179e-06
Heightened Def Con from 8.4179e-06 ++++++++to 8.4179e-06
Heightened Def Con from 8.4179e-06 +++++++++++to 8.4179e-06
Heightened Def Con from 8.4179e-06 ++++++++++++to 8.4179e-06
Heightened Def Con from 8.4179e-06 +++++++++++++to 8.4179e-06
Heightened Def Con from 8.4179e-06 ++++++++++++++to 8.4179e-06
Heightened Def Con from 8.4179e-06 ++++++++++++to 8.4179e-06
Heightened Def Con from 8.4179e-06 +++++++++++++++to 8.4179e-06
Heightened Def Con from 8.4179e-06 ++++++++++++++to 8.4179e-06
Heightened Def Con from 8.4179e-06 ++++++++to 8.4179e-06
Heightened Def Con from 8.4179e-06 +++++++++++++to 8.4179e-06
Heightened Def Con from 8.4179e-06 +++++++++++++to 8.4179e-06
Heightened Def Con from 8.4179e-06 ++++++++++++++++++++++++++to 8.4179e-06
Heightened Def Con from 8.4179e-06 to 8.4179e-06
Heightened Def Con from 8.4179e-06 to 8.4179e-06
Heightened Def Con from 8.4179e-06 to 8.4179e-06
Heightened Def Con from 8.4179e-06 to 8.4179e-06
Heightened Def Con from 8.4179e-06 to 8.4179e-06
Heightened Def Con from 8.4179e-06 to 8.4179e-06
Heightened Def Con from 8.4179e-06 ++++++++++++++++++to 8.4179e-06
Heightened Def Con from 8.4179e-06 +++++++++++to 8.4179e-06
Heightened Def Con from 8.4179e-06 ++++++++++to 8.4179e-06
Heightened Def Con from 8.4179e-06 +++++++++++++++to 8.4179e-06
Heightened Def Con from 8.4179e-06 to 8.4179e-06
Heightened Def Con from 8.4179e-06 to 8.4179e-06
Heightened Def Con from 8.4179e-06 to 8.4179e-06
Heightened Def Con from 8.4179e-06 to 8.4179e-06
Heightened Def Con from 8.4179e-06 to 8.4179e-06
Heightened Def Con from 8.4179e-06 ++++++++++++to 8.4179e-06
Heightened Def Con from 8.4179e-06 ++++++++++++to 8.4179e-06
Heightened Def Con from 8.4179e-06 ++++++++++to 8.4179e-06
Heightened Def Con from 8.4179e-06 +++++++++++to 8.4179e-06
Heightened Def Con from 8.4179e-06 +++++++++++++to 8.4179e-06
Heightened Def Con from 8.4179e-06 ++++++++++++to 8.4179e-06
Heightened Def Con from 8.4179e-06 +++++++++++to 8.4179e-06
Heightened Def Con from 8.4179e-06 to 8.4179e-06
Heightened Def Con from 8.4179e-06 to 8.4179e-06
Heightened Def Con from 8.4179e-06 ++++++++++++++++++++to 8.4179e-06
Heightened Def Con from 8.4179e-06 ++++++++++++++++to 8.4179e-06
Heightened Def Con from 8.4179e-06 ++++++++++++to 8.4179e-06
Heightened Def Con from 8.4179e-06 ++++++++++++++++to 8.4179e-06
Heightened Def Con from 8.4179e-06 +++++++++++++++++to 8.4179e-06
Heightened Def Con from 8.4179e-06 +++++++++++to 8.4179e-06
Heightened Def Con from 8.4179e-06 ++++++++++++++++++++to 8.4179e-06
Heightened Def Con from 8.4179e-06 ++++++++++++++++++++to 8.4179e-06
Heightened Def Con from 8.4179e-06 ++++++++++to 8.4179e-06
Heightened Def Con from 8.4179e-06 ++++++++++to 8.4179e-06
Heightened Def Con from 8.4179e-06 +++++++++++to 8.4179e-06
Heightened Def Con from 8.4179e-06 ++++++++to 8.4179e-06
Heightened Def Con from 8.4179e-06 to 8.4179e-06
Heightened Def Con from 8.4179e-06 +++++to 8.4179e-06
Heightened Def Con from 8.4179e-06 +++++++++++++++to 8.4179e-06
Heightened Def Con from 8.4179e-06 +++++++++++++++to 8.4179e-06
Heightened Def Con from 8.4179e-06 ++++++++++++++++++++to 8.4179e-06
Heightened Def Con from 8.4179e-06 +++++++++++++++to 8.4179e-06
Heightened Def Con from 8.4179e-06 ++++++++++++++++++to 8.4179e-06
Heightened Def Con from 8.4179e-06 +++++++++++++++to 8.4179e-06
Heightened Def Con from 8.4179e-06 +++++++++++++++to 8.4179e-06
Heightened Def Con from 8.4179e-06 +++++++++++++++to 8.4179e-06
Heightened Def Con from 8.4179e-06 +++++++++++++++to 8.4179e-06
Heightened Def Con from 8.4179e-06 ++++++++++++++++++++to 8.4179e-06
Heightened Def Con from 8.4179e-06 ++++++++++++++++++++to 8.4179e-06
Heightened Def Con from 8.4179e-06 ++++++++++++to 8.4179e-06
Heightened Def Con from 8.4179e-06 ++++++++++++++++++++++to 8.4179e-06
Heightened Def Con from 8.4179e-06 ++++++++++to 8.4179e-06
Heightened Def Con from 8.4179e-06 +++++++++++++++to 8.4179e-06
Heightened Def Con from 8.4179e-06 +++++++++to 8.4179e-06
Heightened Def Con from 8.4179e-06 +++++++++++++++to 8.4179e-06
Heightened Def Con from 8.4179e-06 ++++++++++++++++to 8.4179e-06
Heightened Def Con from 8.4179e-06 ++++++++++++++++++to 8.4179e-06
Heightened Def Con from 8.4179e-06 +++++++++++++++to 8.4179e-06
Heightened Def Con from 8.4179e-06 +++++++++++++++to 8.4179e-06
Heightened Def Con from 8.4179e-06 +++++++++++++++to 8.4179e-06
Heightened Def Con from 8.4179e-06 ++++++++++++++to 8.4179e-06
Heightened Def Con from 8.4179e-06 +++++++++++++++to 8.4179e-06
Heightened Def Con from 8.4179e-06 +++++++++++++++to 8.4179e-06
Heightened Def Con from 8.4179e-06 +++++++++++++++++to 8.4179e-06
Heightened Def Con from 8.4179e-06 +++++++++++++++to 8.4179e-06
Heightened Def Con from 8.4179e-06 ++++++++++++++++++++to 8.4179e-06
Heightened Def Con from 8.4179e-06 +++++++++++++++to 8.4179e-06
Heightened Def Con from 8.4179e-06 +++++++++to 8.4179e-06
Heightened Def Con from 8.4179e-06 ++++++++++++++++++to 8.4179e-06
Heightened Def Con from 8.4179e-06 ++++++++++++++++++++to 8.4179e-06
Heightened Def Con from 8.4179e-06 ++++++++++++++to 8.4179e-06
Heightened Def Con from 8.4179e-06 ++++++++++++++++++to 8.4179e-06
Heightened Def Con from 8.4179e-06 ++++++++++++++to 8.4179e-06
Heightened Def Con from 8.4179e-06 to 8.4179e-06
Heightened Def Con from 8.4179e-06 ++++++++to 8.4179e-06
Heightened Def Con from 8.4179e-06 ++++++++++++++++++to 8.4179e-06
Heightened Def Con from 8.4179e-06 ++++++++++++to 8.4179e-06
Heightened Def Con from 8.4179e-06 ++++++++++++++++++to 8.4179e-06
Heightened Def Con from 8.4179e-06 to 8.4179e-06
Heightened Def Con from 8.4179e-06 to 8.4179e-06
Heightened Def Con from 8.4179e-06 +++++++++++to 8.4179e-06
Heightened Def Con from 8.4179e-06 ++++++++++++++++to 8.4179e-06
Heightened Def Con from 8.4179e-06 +++++++++++++to 8.4179e-06
Heightened Def Con from 8.4179e-06 ++++++++++++to 8.4179e-06
Heightened Def Con from 8.4179e-06 ++++++++++++to 8.4179e-06
Heightened Def Con from 8.4179e-06 +++++++++++++to 8.4179e-06
Heightened Def Con from 8.4179e-06 ++++++++to 8.4179e-06
Heightened Def Con from 8.4179e-06 +++++++++++++++++++to 8.4179e-06
Heightened Def Con from 8.4179e-06 to 8.4179e-06
Heightened Def Con from 8.4179e-06 ++++++++++++++to 8.4179e-06
Heightened Def Con from 8.4179e-06 ++++++++++++++to 8.4179e-06
Heightened Def Con from 8.4179e-06 ++++++++++++++to 8.4179e-06
Heightened Def Con from 8.4179e-06 +++++++++++++++++++++++++to 8.4179e-06
Heightened Def Con from 8.4179e-06 ++++++++++to 8.4179e-06
Heightened Def Con from 8.4179e-06 +++++++++++++++++++++++++to 8.4179e-06
Heightened Def Con from 8.4179e-06 +++++++++++++to 8.4179e-06
Heightened Def Con from 8.4179e-06 ++++++++++++++to 8.4179e-06
Heightened Def Con from 8.4179e-06 +++++++++++++to 8.4179e-06
Heightened Def Con from 8.4179e-06 to 8.4179e-06
Heightened Def Con from 8.4179e-06 +++++to 8.4179e-06
Heightened Def Con from 8.4179e-06 ++++++++++to 8.4179e-06
Heightened Def Con from 8.4179e-06 ++++++++to 8.4179e-06
Heightened Def Con from 8.4179e-06 to 8.4179e-06
Heightened Def Con from 8.4179e-06 to 8.4179e-06
Heightened Def Con from 8.4179e-06 +++++++++++++to 8.4179e-06
Heightened Def Con from 8.4179e-06 +++++++++++++to 8.4179e-06
Heightened Def Con from 8.4179e-06 +++++++++++++++++++++++++to 8.4179e-06
Heightened Def Con from 8.4179e-06 +++++++++++to 8.4179e-06
Heightened Def Con from 8.4179e-06 ++++++++++++to 8.4179e-06
Heightened Def Con from 8.4179e-06 to 8.4179e-06
Heightened Def Con from 8.4179e-06 ++++++++to 8.4179e-06
Heightened Def Con from 8.4179e-06 +++++++++++++++++++++++++to 8.4179e-06
Heightened Def Con from 8.4179e-06 +++++++++++to 8.4179e-06
Heightened Def Con from 8.4179e-06 ++++++++++++++to 8.4179e-06
Heightened Def Con from 8.4179e-06 +++++++++++++to 8.4179e-06
Heightened Def Con from 8.4179e-06 ++++++++++++++to 8.4179e-06
Heightened Def Con from 8.4179e-06 +++++++++++++to 8.4179e-06
Heightened Def Con from 8.4179e-06 ++++++++++++++to 8.4179e-06
Heightened Def Con from 8.4179e-06 ++++++++++to 8.4179e-06
Heightened Def Con from 8.4179e-06 ++++++++++++to 8.4179e-06
Heightened Def Con from 8.4179e-06 +++++++++++++to 8.4179e-06
Heightened Def Con from 8.4179e-06 ++++++++++++++to 8.4179e-06
Heightened Def Con from 8.4179e-06 ++++++++++++++to 8.4179e-06
Heightened Def Con from 8.4179e-06 ++++++++++++++++++to 8.4179e-06
Heightened Def Con from 8.4179e-06 +++++++++++++++++++++++++to 8.4179e-06
Heightened Def Con from 8.4179e-06 ++++++++++++++to 8.4179e-06
Heightened Def Con from 8.4179e-06 ++++++++++++to 8.4179e-06
Heightened Def Con from 8.4179e-06 ++++++++++++++to 8.4179e-06
Heightened Def Con from 8.4179e-06 +++++++++++++++to 8.4179e-06
Heightened Def Con from 8.4179e-06 ++++++++to 8.4179e-06
Heightened Def Con from 8.4179e-06 ++++++++++++++++++++++++++to 8.4179e-06
Heightened Def Con from 8.4179e-06 to 8.4179e-06
Heightened Def Con from 8.4179e-06 to 8.4179e-06
Heightened Def Con from 8.4179e-06 ++++++++++++to 8.4179e-06
Heightened Def Con from 8.4179e-06 to 8.4179e-06
Heightened Def Con from 8.4179e-06 to 8.4179e-06
Heightened Def Con from 8.4179e-06 to 8.4179e-06
Heightened Def Con from 8.4179e-06 ++++++++to 8.4179e-06
Heightened Def Con from 8.4179e-06 to 8.4179e-06
Heightened Def Con from 8.4179e-06 +++++++++++to 8.4179e-06
Heightened Def Con from 8.4179e-06 to 8.4179e-06
Heightened Def Con from 8.4179e-06 to 8.4179e-06
Heightened Def Con from 8.4179e-06 ++++++++++++to 8.4179e-06
Heightened Def Con from 8.4179e-06 ++++++++to 8.4179e-06
Heightened Def Con from 8.4179e-06 ++++++++to 8.4179e-06
Heightened Def Con from 8.4179e-06 ++++++++++++to 8.4179e-06
Heightened Def Con from 8.4179e-06 ++++++++++++to 8.4179e-06
Heightened Def Con from 8.4179e-06 +++++to 8.4179e-06
Heightened Def Con from 8.4179e-06 ++++to 8.4179e-06
Heightened Def Con from 8.4179e-06 ++++++++to 8.4179e-06
Heightened Def Con from 8.4179e-06 to 8.4179e-06
Heightened Def Con from 8.4179e-06 +++++++++++++++to 8.4179e-06
Heightened Def Con from 8.4179e-06 +++++++++++to 8.4179e-06
Heightened Def Con from 8.4179e-06 ++++++++++to 8.4179e-06
Heightened Def Con from 8.4179e-06 +++++++++++++to 8.4179e-06
Heightened Def Con from 8.4179e-06 ++++++++++++++to 8.4179e-06
Heightened Def Con from 8.4179e-06 +++++++++++++++to 8.4179e-06
Heightened Def Con from 8.4179e-06 ++++++++to 8.4179e-06
Heightened Def Con from 8.4179e-06 to 8.4179e-06
Heightened Def Con from 8.4179e-06 to 8.4179e-06
Heightened Def Con from 8.4179e-06 +++++++++++to 8.4179e-06
Heightened Def Con from 8.4179e-06 to 8.4179e-06
Heightened Def Con from 8.4179e-06 +++++to 8.4179e-06
Heightened Def Con from 8.4179e-06 ++++++++to 8.4179e-06
Heightened Def Con from 8.4179e-06 to 8.4179e-06
Heightened Def Con from 8.4179e-06 ++++++++++to 8.4179e-06
Heightened Def Con from 8.4179e-06 to 8.4179e-06
Heightened Def Con from 8.4179e-06 to 8.4179e-06
Heightened Def Con from 8.4179e-06 to 8.4179e-06
Heightened Def Con from 8.4179e-06 to 8.4179e-06
Heightened Def Con from 8.4179e-06 to 8.4179e-06
Heightened Def Con from 8.4179e-06 ++++++++++++to 8.4179e-06
Heightened Def Con from 8.4179e-06 ++++++++++++++++to 8.4179e-06
Heightened Def Con from 8.4179e-06 to 8.4179e-06
Heightened Def Con from 8.4179e-06 ++++++++++++++to 8.4179e-06
Heightened Def Con from 8.4179e-06 to 8.4179e-06
Heightened Def Con from 8.4179e-06 ++++++++to 8.4179e-06
Heightened Def Con from 8.4179e-06 to 8.4179e-06
Heightened Def Con from 8.4179e-06 ++++++++++to 8.4179e-06
Heightened Def Con from 8.4179e-06 +++++++to 8.4179e-06
Heightened Def Con from 8.4179e-06 ++++++++to 8.4179e-06
Heightened Def Con from 8.4179e-06 to 8.4179e-06
Heightened Def Con from 8.4179e-06 ++++++++++to 8.4179e-06
Heightened Def Con from 8.4179e-06 to 8.4179e-06
Heightened Def Con from 8.4179e-06 ++++++++to 8.4179e-06
Heightened Def Con from 8.4179e-06 ++++++++++to 8.4179e-06
Heightened Def Con from 8.4179e-06 to 8.4179e-06
Heightened Def Con from 8.4179e-06 to 8.4179e-06
Heightened Def Con from 8.4179e-06 to 8.4179e-06
Heightened Def Con from 8.4179e-06 ++++++++++to 8.4179e-06
Heightened Def Con from 8.4179e-06 +++++++++++++to 8.4179e-06
Heightened Def Con from 8.4179e-06 ++++++++++to 8.4179e-06
Heightened Def Con from 8.4179e-06 to 8.4179e-06
Heightened Def Con from 8.4179e-06 to 8.4179e-06
Heightened Def Con from 8.4179e-06 ++++++++++++to 8.4179e-06
Heightened Def Con from 8.4179e-06 +++++++++++++to 8.4179e-06
Heightened Def Con from 8.4179e-06 ++++++++++++++to 8.4179e-06
Heightened Def Con from 8.4179e-06 +++++++++++++to 8.4179e-06
Heightened Def Con from 8.4179e-06 ++++++++++++++to 8.4179e-06
Heightened Def Con from 8.4179e-06 ++++++++++to 8.4179e-06
Heightened Def Con from 8.4179e-06 +++++++++++++to 8.4179e-06
Heightened Def Con from 8.4179e-06 to 8.4179e-06
Heightened Def Con from 8.4179e-06 +++++++++++++to 8.4179e-06
Heightened Def Con from 8.4179e-06 +++++++++++to 8.4179e-06
Heightened Def Con from 8.4179e-06 ++++++++++++++to 8.4179e-06
Heightened Def Con from 8.4179e-06 +++++++++++++to 8.4179e-06
Heightened Def Con from 8.4179e-06 +++++++++++++to 8.4179e-06
Heightened Def Con from 8.4179e-06 ++++++++++++++to 8.4179e-06
Heightened Def Con from 8.4179e-06 +++++++++++to 8.4179e-06
Heightened Def Con from 8.4179e-06 ++++++++++++to 8.4179e-06
Heightened Def Con from 8.4179e-06 ++++++to 8.4179e-06
Heightened Def Con from 8.4179e-06 to 8.4179e-06
Heightened Def Con from 8.4179e-06 ++++++++++++++to 8.4179e-06
Heightened Def Con from 8.4179e-06 ++++++++++to 8.4179e-06
Heightened Def Con from 8.4179e-06 +++++++++++++to 8.4179e-06
Heightened Def Con from 8.4179e-06 to 8.4179e-06
Heightened Def Con from 8.4179e-06 ++++++++++++++to 8.4179e-06
Heightened Def Con from 8.4179e-06 +++++++++++++to 8.4179e-06
Heightened Def Con from 8.4179e-06 ++++++++++to 8.4179e-06
Heightened Def Con from 8.4179e-06 to 8.4179e-06
Heightened Def Con from 8.4179e-06 ++++++to 8.4179e-06
Heightened Def Con from 8.4179e-06 to 8.4179e-06
Heightened Def Con from 8.4179e-06 to 8.4179e-06
Heightened Def Con from 8.4179e-06 to 8.4179e-06
Heightened Def Con from 8.4179e-06 +++++++++++++to 8.4179e-06
Heightened Def Con from 8.4179e-06 ++++++++++to 8.4179e-06
Heightened Def Con from 8.4179e-06 to 8.4179e-06
Heightened Def Con from 8.4179e-06 ++++++++++to 8.4179e-06
Heightened Def Con from 8.4179e-06 to 8.4179e-06
Heightened Def Con from 8.4179e-06 to 8.4179e-06
Heightened Def Con from 8.4179e-06 ++++++++++++to 8.4179e-06
Heightened Def Con from 8.4179e-06 to 8.4179e-06
Heightened Def Con from 8.4179e-06 to 8.4179e-06
Heightened Def Con from 8.4179e-06 ++++++++to 8.4179e-06
Heightened Def Con from 8.4179e-06 to 8.4179e-06
Heightened Def Con from 8.4179e-06 ++++++++++++++to 8.4179e-06
Heightened Def Con from 8.4179e-06 to 8.4179e-06
Heightened Def Con from 8.4179e-06 to 8.4179e-06
Heightened Def Con from 8.4179e-06 to 8.4179e-06
Heightened Def Con from 8.4179e-06 ++++++++++++++to 8.4179e-06
Heightened Def Con from 8.4179e-06 ++++++++++to 8.4179e-06
Heightened Def Con from 8.4179e-06 to 8.4179e-06
Heightened Def Con from 8.4179e-06 to 8.4179e-06
Heightened Def Con from 8.4179e-06 ++++++++++++++to 8.4179e-06
Heightened Def Con from 8.4179e-06 ++++++++++++++++to 8.4179e-06
Heightened Def Con from 8.4179e-06 to 8.4179e-06
Heightened Def Con from 8.4179e-06 to 8.4179e-06
Heightened Def Con from 8.4179e-06 ++++++++++to 8.4179e-06
Heightened Def Con from 8.4179e-06 to 8.4179e-06
Heightened Def Con from 8.4179e-06 to 8.4179e-06
Heightened Def Con from 8.4179e-06 to 8.4179e-06
Heightened Def Con from 8.4179e-06 to 8.4179e-06
Heightened Def Con from 8.4179e-06 ++++++++++++to 8.4179e-06
Heightened Def Con from 8.4179e-06 ++++++++to 8.4179e-06
Heightened Def Con from 8.4179e-06 to 8.4179e-06
Heightened Def Con from 8.4179e-06 ++++++++to 8.4179e-06
Heightened Def Con from 8.4179e-06 to 8.4179e-06
Heightened Def Con from 8.4179e-06 to 8.4179e-06
Heightened Def Con from 8.4179e-06 to 8.4179e-06
Heightened Def Con from 8.4179e-06 to 8.4179e-06
Heightened Def Con from 8.4179e-06 ++++++++to 8.4179e-06
Heightened Def Con from 8.4179e-06 +++++++++++++to 8.4179e-06
Heightened Def Con from 8.4179e-06 to 8.4179e-06
Heightened Def Con from 8.4179e-06 ++++++++++++to 8.4179e-06
Heightened Def Con from 8.4179e-06 +to 8.4179e-06
Heightened Def Con from 8.4179e-06 to 8.4179e-06
Heightened Def Con from 8.4179e-06 to 8.4179e-06
Heightened Def Con from 8.4179e-06 to 8.4179e-06
Heightened Def Con from 8.4179e-06 to 8.4179e-06
Heightened Def Con from 8.4179e-06 to 8.4179e-06
Heightened Def Con from 8.4179e-06 to 8.4179e-06
Heightened Def Con from 8.4179e-06 to 8.4179e-06
Heightened Def Con from 8.4179e-06 to 8.4179e-06
Heightened Def Con from 8.4179e-06 ++++++++++++to 8.4179e-06
Heightened Def Con from 8.4179e-06 ++++++++++to 8.4179e-06
Heightened Def Con from 8.4179e-06 +++++++++++to 8.4179e-06
Heightened Def Con from 8.4179e-06 to 8.4179e-06
Heightened Def Con from 8.4179e-06 +++++++++++++to 8.4179e-06
Heightened Def Con from 8.4179e-06 +++++++to 8.4179e-06
Heightened Def Con from 8.4179e-06 +++++++++to 8.4179e-06
Heightened Def Con from 8.4179e-06 ++++++++++to 8.4179e-06
Heightened Def Con from 8.4179e-06 +++++++to 8.4179e-06
Heightened Def Con from 8.4179e-06 to 8.4179e-06
Heightened Def Con from 8.4179e-06 ++++++++++to 8.4179e-06
Heightened Def Con from 8.4179e-06 ++++++++++to 8.4179e-06
Heightened Def Con from 8.4179e-06 +++++++++++++to 8.4179e-06
Heightened Def Con from 8.4179e-06 +++++++++++++to 8.4179e-06
Heightened Def Con from 8.4179e-06 ++++++++to 8.4179e-06
Heightened Def Con from 8.4179e-06 +++++++++++++to 8.4179e-06
Heightened Def Con from 8.4179e-06 ++++++++to 8.4179e-06
Heightened Def Con from 8.4179e-06 ++++++++++to 8.4179e-06
Heightened Def Con from 8.4179e-06 ++++++++to 8.4179e-06
Heightened Def Con from 8.4179e-06 +++++++++++to 8.4179e-06
Heightened Def Con from 8.4179e-06 to 8.4179e-06
Heightened Def Con from 8.4179e-06 to 8.4179e-06
Heightened Def Con from 8.4179e-06 ++++++++++++to 8.4179e-06
Heightened Def Con from 8.4179e-06 ++++++++to 8.4179e-06
Heightened Def Con from 8.4179e-06 to 8.4179e-06
Heightened Def Con from 8.4179e-06 to 8.4179e-06
Heightened Def Con from 8.4179e-06 +++++++to 8.4179e-06
Heightened Def Con from 8.4179e-06 to 8.4179e-06
Heightened Def Con from 8.4179e-06 to 8.4179e-06
Heightened Def Con from 8.4179e-06 +++++++++++++to 8.4179e-06
Heightened Def Con from 8.4179e-06 ++++++++++to 8.4179e-06
Heightened Def Con from 8.4179e-06 to 8.4179e-06
Heightened Def Con from 8.4179e-06 +++++++++to 8.4179e-06
Heightened Def Con from 8.4179e-06 ++++++++to 8.4179e-06
Heightened Def Con from 8.4179e-06 to 8.4179e-06
Heightened Def Con from 8.4179e-06 +++++++++++++to 8.4179e-06
Heightened Def Con from 8.4179e-06 to 8.4179e-06
Heightened Def Con from 8.4179e-06 +++++++++++++to 8.4179e-06
Heightened Def Con from 8.4179e-06 +++++++++++to 8.4179e-06
Heightened Def Con from 8.4179e-06 +++++++++++++to 8.4179e-06
Heightened Def Con from 8.4179e-06 to 8.4179e-06
Heightened Def Con from 8.4179e-06 +++++++++++to 8.4179e-06
Heightened Def Con from 8.4179e-06 ++++++++to 8.4179e-06
Heightened Def Con from 8.4179e-06 ++++++++++to 8.4179e-06
Heightened Def Con from 8.4179e-06 to 8.4179e-06
Heightened Def Con from 8.4179e-06 ++++++++++++to 8.4179e-06
Heightened Def Con from 8.4179e-06 +++++to 8.4179e-06
Heightened Def Con from 8.4179e-06 ++++++++++to 8.4179e-06
Heightened Def Con from 8.4179e-06 to 8.4179e-06
Heightened Def Con from 8.4179e-06 to 8.4179e-06
Heightened Def Con from 8.4179e-06 to 8.4179e-06
Heightened Def Con from 8.4179e-06 to 8.4179e-06
Heightened Def Con from 8.4179e-06 ++++++++to 8.4179e-06
Heightened Def Con from 8.4179e-06 ++++++++++to 8.4179e-06
Heightened Def Con from 8.4179e-06 to 8.4179e-06
Heightened Def Con from 8.4179e-06 ++++++++++to 8.4179e-06
Heightened Def Con from 8.4179e-06 +++++++++++++++to 8.4179e-06
Heightened Def Con from 8.4179e-06 to 8.4179e-06
Heightened Def Con from 8.4179e-06 ++++++++to 8.4179e-06
Heightened Def Con from 8.4179e-06 to 8.4179e-06
Heightened Def Con from 8.4179e-06 ++++++++to 8.4179e-06
Heightened Def Con from 8.4179e-06 to 8.4179e-06
Heightened Def Con from 8.4179e-06 to 8.4179e-06
Heightened Def Con from 8.4179e-06 ++++++++++++to 8.4179e-06
Heightened Def Con from 8.4179e-06 to 8.4179e-06
Heightened Def Con from 8.4179e-06 +++++++++++to 8.4179e-06
Heightened Def Con from 8.4179e-06 ++++++++++to 8.4179e-06
Heightened Def Con from 8.4179e-06 to 8.4179e-06
Heightened Def Con from 8.4179e-06 ++++++++++to 8.4179e-06
Heightened Def Con from 8.4179e-06 ++++++++to 8.4179e-06
Heightened Def Con from 8.4179e-06 ++++++++++to 8.4179e-06
Heightened Def Con from 8.4179e-06 to 8.4179e-06
Heightened Def Con from 8.4179e-06 to 8.4179e-06
Heightened Def Con from 8.4179e-06 ++++++++++to 8.4179e-06
Heightened Def Con from 8.4179e-06 +++++++++++++to 8.4179e-06
Heightened Def Con from 8.4179e-06 ++++++++++++to 8.4179e-06
Heightened Def Con from 8.4179e-06 ++++++++++to 8.4179e-06
Heightened Def Con from 8.4179e-06 to 8.4179e-06
Heightened Def Con from 8.4179e-06 to 8.4179e-06
Heightened Def Con from 8.4179e-06 ++++++++to 8.4179e-06
Heightened Def Con from 8.4179e-06 to 8.4179e-06
Heightened Def Con from 8.4179e-06 ++++++++to 8.4179e-06
Heightened Def Con from 8.4179e-06 to 8.4179e-06
Heightened Def Con from 8.4179e-06 ++++++++to 8.4179e-06
Heightened Def Con from 8.4179e-06 ++++++++++++++to 8.4179e-06
Heightened Def Con from 8.4179e-06 +++++++++++++to 8.4179e-06
Heightened Def Con from 8.4179e-06 to 8.4179e-06
Heightened Def Con from 8.4179e-06 to 8.4179e-06
Heightened Def Con from 8.4179e-06 to 8.4179e-06
Heightened Def Con from 8.4179e-06 ++++++++++++to 8.4179e-06
Heightened Def Con from 8.4179e-06 to 8.4179e-06
Heightened Def Con from 8.4179e-06 ++++++++++++++to 8.4179e-06
Heightened Def Con from 8.4179e-06 +++++++++++++to 8.4179e-06
Heightened Def Con from 8.4179e-06 ++++++++++to 8.4179e-06
Heightened Def Con from 8.4179e-06 +++++++++++++to 8.4179e-06
Heightened Def Con from 8.4179e-06 to 8.4179e-06
Heightened Def Con from 8.4179e-06 ++++++++++++to 8.4179e-06
Heightened Def Con from 8.4179e-06 to 8.4179e-06
Heightened Def Con from 8.4179e-06 to 8.4179e-06
Heightened Def Con from 8.4179e-06 to 8.4179e-06
Heightened Def Con from 8.4179e-06 to 8.4179e-06
Heightened Def Con from 8.4179e-06 to 8.4179e-06
Heightened Def Con from 8.4179e-06 +++++++++++to 8.4179e-06
Heightened Def Con from 8.4179e-06 +++++++++to 8.4179e-06
Heightened Def Con from 8.4179e-06 to 8.4179e-06
Heightened Def Con from 8.4179e-06 to 8.4179e-06
Heightened Def Con from 8.4179e-06 ++++++++++++++to 8.4179e-06
Heightened Def Con from 8.4179e-06 to 8.4179e-06
Heightened Def Con from 8.4179e-06 ++++++++++to 8.4179e-06
Heightened Def Con from 8.4179e-06 ++++++++++++to 8.4179e-06
Heightened Def Con from 8.4179e-06 ++++++++to 8.4179e-06
Heightened Def Con from 8.4179e-06 to 8.4179e-06
Heightened Def Con from 8.4179e-06 to 8.4179e-06
Heightened Def Con from 8.4179e-06 ++++++++to 8.4179e-06
Heightened Def Con from 8.4179e-06 ++++++++to 8.4179e-06
Heightened Def Con from 8.4179e-06 ++++++++++++++to 8.4179e-06
Heightened Def Con from 8.4179e-06 to 8.4179e-06
Heightened Def Con from 8.4179e-06 ++++++++++to 8.4179e-06
Heightened Def Con from 8.4179e-06 to 8.4179e-06
Heightened Def Con from 8.4179e-06 to 8.4179e-06
Heightened Def Con from 8.4179e-06 to 8.4179e-06
Heightened Def Con from 8.4179e-06 ++++to 8.4179e-06
Heightened Def Con from 8.4179e-06 +++++++++++++to 8.4179e-06
Heightened Def Con from 8.4179e-06 ++++++to 8.4179e-06
Heightened Def Con from 8.4179e-06 ++++++++to 8.4179e-06
Heightened Def Con from 8.4179e-06 +++++++to 8.4179e-06
Heightened Def Con from 8.4179e-06 to 8.4179e-06
Heightened Def Con from 8.4179e-06 to 8.4179e-06
Heightened Def Con from 8.4179e-06 ++++++++++to 8.4179e-06
Heightened Def Con from 8.4179e-06 +++++++++++++to 8.4179e-06
Heightened Def Con from 8.4179e-06 to 8.4179e-06
Heightened Def Con from 8.4179e-06 +++++++++++++to 8.4179e-06
Heightened Def Con from 8.4179e-06 to 8.4179e-06
Heightened Def Con from 8.4179e-06 to 8.4179e-06
Heightened Def Con from 8.4179e-06 +++++++++++++to 8.4179e-06
Heightened Def Con from 8.4179e-06 +++++++to 8.4179e-06
Heightened Def Con from 8.4179e-06 to 8.4179e-06
Heightened Def Con from 8.4179e-06 ++++++++to 8.4179e-06
Heightened Def Con from 8.4179e-06 ++++++++++++to 8.4179e-06
Heightened Def Con from 8.4179e-06 to 8.4179e-06
Heightened Def Con from 8.4179e-06 ++++++++++to 8.4179e-06
Heightened Def Con from 8.4179e-06 to 8.4179e-06
Heightened Def Con from 8.4179e-06 to 8.4179e-06
Heightened Def Con from 8.4179e-06 to 8.4179e-06
Heightened Def Con from 8.4179e-06 ++++++++++to 8.4179e-06
Heightened Def Con from 8.4179e-06 to 8.4179e-06
Heightened Def Con from 8.4179e-06 +++++++++++to 8.4179e-06
Heightened Def Con from 8.4179e-06 ++++++++to 8.4179e-06
Heightened Def Con from 8.4179e-06 to 8.4179e-06
Heightened Def Con from 8.4179e-06 to 8.4179e-06
Heightened Def Con from 8.4179e-06 to 8.4179e-06
Heightened Def Con from 8.4179e-06 to 8.4179e-06
Heightened Def Con from 8.4179e-06 to 8.4179e-06
Heightened Def Con from 8.4179e-06 to 8.4179e-06
Heightened Def Con from 8.4179e-06 +++to 8.4179e-06
Heightened Def Con from 8.4179e-06 +++++++++++++to 8.4179e-06
Heightened Def Con from 8.4179e-06 ++++++++++++++to 8.4179e-06
Heightened Def Con from 8.4179e-06 ++++++++to 8.4179e-06
Heightened Def Con from 8.4179e-06 ++++++++++to 8.4179e-06
Heightened Def Con from 8.4179e-06 +++++++++++to 8.4179e-06
Heightened Def Con from 8.4179e-06 ++++++++++++to 8.4179e-06
Heightened Def Con from 8.4179e-06 to 8.4179e-06
Heightened Def Con from 8.4179e-06 ++++++++++++++to 8.4179e-06
Heightened Def Con from 8.4179e-06 +++++to 8.4179e-06
Heightened Def Con from 8.4179e-06 to 8.4179e-06
Heightened Def Con from 8.4179e-06 to 8.4179e-06
Heightened Def Con from 8.4179e-06 ++++++++++++to 8.4179e-06
Heightened Def Con from 8.4179e-06 to 8.4179e-06
Heightened Def Con from 8.4179e-06 to 8.4179e-06
Heightened Def Con from 8.4179e-06 to 8.4179e-06
Heightened Def Con from 8.4179e-06 to 8.4179e-06
Heightened Def Con from 8.4179e-06 to 8.4179e-06
Heightened Def Con from 8.4179e-06 to 8.4179e-06
Heightened Def Con from 8.4179e-06 to 8.4179e-06
Heightened Def Con from 8.4179e-06 to 8.4179e-06
Heightened Def Con from 8.4179e-06 to 8.4179e-06
Heightened Def Con from 8.4179e-06 ++++++++++to 8.4179e-06
Heightened Def Con from 8.4179e-06 ++++++++to 8.4179e-06
Heightened Def Con from 8.4179e-06 ++++++++to 8.4179e-06
Heightened Def Con from 8.4179e-06 ++++++++++to 8.4179e-06
Heightened Def Con from 8.4179e-06 +++++++++++++to 8.4179e-06
Heightened Def Con from 8.4179e-06 ++++++++++to 8.4179e-06
Heightened Def Con from 8.4179e-06 ++++++++++to 8.4179e-06
Heightened Def Con from 8.4179e-06 ++++++++++to 8.4179e-06
Heightened Def Con from 8.4179e-06 ++++++++++++++to 8.4179e-06
Heightened Def Con from 8.4179e-06 +++++++++++++++to 8.4179e-06
Heightened Def Con from 8.4179e-06 +++++++to 8.4179e-06
Heightened Def Con from 8.4179e-06 to 8.4179e-06
Heightened Def Con from 8.4179e-06 ++++++++++++++to 8.4179e-06
Heightened Def Con from 8.4179e-06 ++++++++++to 8.4179e-06
Heightened Def Con from 8.4179e-06 ++++++++++to 8.4179e-06
Heightened Def Con from 8.4179e-06 ++++++++to 8.4179e-06
Heightened Def Con from 8.4179e-06 to 8.4179e-06
Heightened Def Con from 8.4179e-06 ++++++++++to 8.4179e-06
Heightened Def Con from 8.4179e-06 +++++++++++++to 8.4179e-06
Heightened Def Con from 8.4179e-06 ++++++++++to 8.4179e-06
Heightened Def Con from 8.4179e-06 to 8.4179e-06
Heightened Def Con from 8.4179e-06 ++++++++++to 8.4179e-06
Heightened Def Con from 8.4179e-06 ++++++++to 8.4179e-06
Heightened Def Con from 8.4179e-06 to 8.4179e-06
Heightened Def Con from 8.4179e-06 ++++++++++to 8.4179e-06
Heightened Def Con from 8.4179e-06 ++++++++++to 8.4179e-06
Heightened Def Con from 8.4179e-06 +++++++++to 8.4179e-06
Heightened Def Con from 8.4179e-06 ++++++++to 8.4179e-06
Heightened Def Con from 8.4179e-06 ++++++++++++to 8.4179e-06
Heightened Def Con from 8.4179e-06 to 8.4179e-06
Heightened Def Con from 8.4179e-06 +++++++++++++to 8.4179e-06
Heightened Def Con from 8.4179e-06 ++++++++++++++to 8.4179e-06
Heightened Def Con from 8.4179e-06 +++++++++++++to 8.4179e-06
Heightened Def Con from 8.4179e-06 to 8.4179e-06
Heightened Def Con from 8.4179e-06 to 8.4179e-06
Heightened Def Con from 8.4179e-06 to 8.4179e-06
Heightened Def Con from 8.4179e-06 ++++++++++++to 8.4179e-06
Heightened Def Con from 8.4179e-06 +++++++to 8.4179e-06
Heightened Def Con from 8.4179e-06 ++++++++to 8.4179e-06
Heightened Def Con from 8.4179e-06 +++++++++++to 8.4179e-06
Heightened Def Con from 8.4179e-06 +++to 8.4179e-06
Heightened Def Con from 8.4179e-06 to 8.4179e-06
Heightened Def Con from 8.4179e-06 ++++++++++++to 8.4179e-06
Heightened Def Con from 8.4179e-06 ++++++++++to 8.4179e-06
Heightened Def Con from 8.4179e-06 ++++++++++to 8.4179e-06
Heightened Def Con from 8.4179e-06 to 8.4179e-06
Heightened Def Con from 8.4179e-06 to 8.4179e-06
Heightened Def Con from 8.4179e-06 to 8.4179e-06
Heightened Def Con from 8.4179e-06 ++++++++to 8.4179e-06
Heightened Def Con from 8.4179e-06 to 8.4179e-06
Heightened Def Con from 8.4179e-06 +++++++++++++to 8.4179e-06
Heightened Def Con from 8.4179e-06 to 8.4179e-06
Heightened Def Con from 8.4179e-06 +++++++++++++to 8.4179e-06
Heightened Def Con from 8.4179e-06 ++++++++++++++to 8.4179e-06
Heightened Def Con from 8.4179e-06 ++++++++to 8.4179e-06
Heightened Def Con from 8.4179e-06 ++++++++++to 8.4179e-06
Heightened Def Con from 8.4179e-06 +++++++++++++to 8.4179e-06
Heightened Def Con from 8.4179e-06 +++++++++++to 8.4179e-06
Heightened Def Con from 8.4179e-06 +++++++++++++to 8.4179e-06
Heightened Def Con from 8.4179e-06 ++++++++++++++to 8.4179e-06
Heightened Def Con from 8.4179e-06 ++++++++++to 8.4179e-06
Heightened Def Con from 8.4179e-06 +++++++++to 8.4179e-06
Heightened Def Con from 8.4179e-06 ++++++++++++++to 8.4179e-06
Heightened Def Con from 8.4179e-06 ++++++++++to 8.4179e-06
Heightened Def Con from 8.4179e-06 ++++++++++++++++++to 8.4179e-06
Heightened Def Con from 8.4179e-06 to 8.4179e-06
Heightened Def Con from 8.4179e-06 to 8.4179e-06
Heightened Def Con from 8.4179e-06 ++++++++++++++to 8.4179e-06
Heightened Def Con from 8.4179e-06 ++++++++++++++to 8.4179e-06
Heightened Def Con from 8.4179e-06 ++++++++++++++to 8.4179e-06
Heightened Def Con from 8.4179e-06 +++++++++++++to 8.4179e-06
Heightened Def Con from 8.4179e-06 to 8.4179e-06
Heightened Def Con from 8.4179e-06 to 8.4179e-06
Heightened Def Con from 8.4179e-06 +++++to 8.4179e-06
Heightened Def Con from 8.4179e-06 ++++++++to 8.4179e-06
Heightened Def Con from 8.4179e-06 ++++++++++++++to 8.4179e-06
Heightened Def Con from 8.4179e-06 +++++++++++++++to 8.4179e-06
Heightened Def Con from 8.4179e-06 +++to 8.4179e-06
Heightened Def Con from 8.4179e-06 +++++++++++to 8.4179e-06
Heightened Def Con from 8.4179e-06 to 8.4179e-06
Heightened Def Con from 8.4179e-06 to 8.4179e-06
Heightened Def Con from 8.4179e-06 ++++++++++to 8.4179e-06
Heightened Def Con from 8.4179e-06 +++++++++++++to 8.4179e-06
Heightened Def Con from 8.4179e-06 ++++++++++++++to 8.4179e-06
Heightened Def Con from 8.4179e-06 +++++++++++++to 8.4179e-06
Heightened Def Con from 8.4179e-06 +++++++++++++to 8.4179e-06
Heightened Def Con from 8.4179e-06 +++++++++++++to 8.4179e-06
Heightened Def Con from 8.4179e-06 ++++++++++++++++to 8.4179e-06
Heightened Def Con from 8.4179e-06 ++++++++++++++to 8.4179e-06
Heightened Def Con from 8.4179e-06 to 8.4179e-06
Heightened Def Con from 8.4179e-06 to 8.4179e-06
Heightened Def Con from 8.4179e-06 +++++++++++++to 8.4179e-06
Heightened Def Con from 8.4179e-06 ++++++++++++to 8.4179e-06
Heightened Def Con from 8.4179e-06 ++++++++++to 8.4179e-06
Heightened Def Con from 8.4179e-06 ++++++++to 8.4179e-06
Heightened Def Con from 8.4179e-06 ++++++++to 8.4179e-06
Heightened Def Con from 8.4179e-06 +++++++++++++to 8.4179e-06
Heightened Def Con from 8.4179e-06 to 8.4179e-06
Heightened Def Con from 8.4179e-06 +++++++++++++to 8.4179e-06
Heightened Def Con from 8.4179e-06 ++++++++to 8.4179e-06
Heightened Def Con from 8.4179e-06 +++++++++++to 8.4179e-06
Heightened Def Con from 8.4179e-06 +++++++++++++to 8.4179e-06
Heightened Def Con from 8.4179e-06 ++++++++++++++to 8.4179e-06
[...]
Heightened Def Con from 8.4179e-06 to 8.4179e-06
Heightened Def Con from 8.4179e-06 ++++++++to 8.4179e-06
Heightened Def Con from 8.4179e-06 ++++++++++++++to 8.4179e-06
Heightened Def Con from 8.4179e-06 to 8.4179e-06
Heightened Def Con from 8.4179e-06 +++++to 8.4179e-06
Heightened Def Con from 8.4179e-06 to 8.4179e-06
Heightened Def Con from 8.4179e-06 to 8.4179e-06
Heightened Def Con from 8.4179e-06 ++++++++++to 8.4179e-06
Heightened Def Con from 8.4179e-06 ++++++++++to 8.4179e-06
Heightened Def Con from 8.4179e-06 to 8.4179e-06
Heightened Def Con from 8.4179e-06 ++++++++++++++to 8.4179e-06
Heightened Def Con from 8.4179e-06 +to 8.4179e-06
Heightened Def Con from 8.4179e-06 to 8.4179e-06
Heightened Def Con from 8.4179e-06 ++++++++to 8.4179e-06
Heightened Def Con from 8.4179e-06 to 8.4179e-06
Heightened Def Con from 8.4179e-06 to 8.4179e-06
Heightened Def Con from 8.4179e-06 +++++++++++++to 8.4179e-06
Heightened Def Con from 8.4179e-06 ++++++++++to 8.4179e-06
Heightened Def Con from 8.4179e-06 +++++++++++++to 8.4179e-06
Heightened Def Con from 8.4179e-06 ++++++++++to 8.4179e-06
Heightened Def Con from 8.4179e-06 ++++++++++to 8.4179e-06
Heightened Def Con from 8.4179e-06 ++++++++++to 8.4179e-06
Heightened Def Con from 8.4179e-06 to 8.4179e-06
Heightened Def Con from 8.4179e-06 ++++++++to 8.4179e-06
Heightened Def Con from 8.4179e-06 ++++++++++to 8.4179e-06
Heightened Def Con from 8.4179e-06 +++++++++++++to 8.4179e-06
Heightened Def Con from 8.4179e-06 to 8.4179e-06
Heightened Def Con from 8.4179e-06 to 8.4179e-06
Heightened Def Con from 8.4179e-06 to 8.4179e-06
Heightened Def Con from 8.4179e-06 to 8.4179e-06
Heightened Def Con from 8.4179e-06 +++++++++++to 8.4179e-06
Heightened Def Con from 8.4179e-06 +++++++++++++to 8.4179e-06
Heightened Def Con from 8.4179e-06 ++++++++++to 8.4179e-06
Heightened Def Con from 8.4179e-06 to 8.4179e-06
Heightened Def Con from 8.4179e-06 to 8.4179e-06
Heightened Def Con from 8.4179e-06 +to 8.4179e-06
Heightened Def Con from 8.4179e-06 to 8.4179e-06
Heightened Def Con from 8.4179e-06 ++++++++++++++to 8.4179e-06
Heightened Def Con from 8.4179e-06 ++++++++++to 8.4179e-06
Heightened Def Con from 8.4179e-06 ++++++++to 8.4179e-06
Heightened Def Con from 8.4179e-06 ++++++++++to 8.4179e-06
Heightened Def Con from 8.4179e-06 +++++++++++++to 8.4179e-06
Heightened Def Con from 8.4179e-06 ++++++++++to 8.4179e-06
Heightened Def Con from 8.4179e-06 ++++++++++to 8.4179e-06
Heightened Def Con from 8.4179e-06 +++++++++++++to 8.4179e-06
Heightened Def Con from 8.4179e-06 ++++++++++++to 8.4179e-06
Heightened Def Con from 8.4179e-06 ++++++++++++++to 8.4179e-06
Heightened Def Con from 8.4179e-06 ++++++++++++to 8.4179e-06
Heightened Def Con from 8.4179e-06 +++++++++++++to 8.4179e-06
Heightened Def Con from 8.4179e-06 ++++++++++++++to 8.4179e-06
Heightened Def Con from 8.4179e-06 +++++++++++++to 8.4179e-06
Heightened Def Con from 8.4179e-06 ++++++++++++to 8.4179e-06
Heightened Def Con from 8.4179e-06 ++++++++++++++++++to 8.4179e-06
Heightened Def Con from 8.4179e-06 ++++++++++++to 8.4179e-06
Heightened Def Con from 8.4179e-06 +++++++++++++to 8.4179e-06
Heightened Def Con from 8.4179e-06 to 8.4179e-06
Heightened Def Con from 8.4179e-06 to 8.4179e-06
Heightened Def Con from 8.4179e-06 +++to 8.4179e-06
Heightened Def Con from 8.4179e-06 to 8.4179e-06
Heightened Def Con from 8.4179e-06 ++++to 8.4179e-06
Heightened Def Con from 8.4179e-06 ++++++++to 8.4179e-06
Heightened Def Con from 8.4179e-06 ++++++++++++++to 8.4179e-06
Heightened Def Con from 8.4179e-06 +++++++++++to 8.4179e-06
Heightened Def Con from 8.4179e-06 to 8.4179e-06
Heightened Def Con from 8.4179e-06 +++++++++++to 8.4179e-06
Heightened Def Con from 8.4179e-06 ++++++++++to 8.4179e-06
Heightened Def Con from 8.4179e-06 to 8.4179e-06
Heightened Def Con from 8.4179e-06 ++++++++++to 8.4179e-06
Heightened Def Con from 8.4179e-06 +++++++++++++to 8.4179e-06
Heightened Def Con from 8.4179e-06 +++++++++++++to 8.4179e-06
Heightened Def Con from 8.4179e-06 to 8.4179e-06
Heightened Def Con from 8.4179e-06 +++++++++++to 8.4179e-06
Heightened Def Con from 8.4179e-06 ++++++++to 8.4179e-06
Heightened Def Con from 8.4179e-06 +++++++++++++to 8.4179e-06
Heightened Def Con from 8.4179e-06 to 8.4179e-06
Heightened Def Con from 8.4179e-06 ++++++++++to 8.4179e-06
Heightened Def Con from 8.4179e-06 to 8.4179e-06
Heightened Def Con from 8.4179e-06 to 8.4179e-06
Heightened Def Con from 8.4179e-06 ++++++++++++to 8.4179e-06
Heightened Def Con from 8.4179e-06 ++++++++to 8.4179e-06
Heightened Def Con from 8.4179e-06 +++++++++++to 8.4179e-06
Heightened Def Con from 8.4179e-06 ++++++++to 8.4179e-06
Heightened Def Con from 8.4179e-06 ++++++++++++to 8.4179e-06
Heightened Def Con from 8.4179e-06 ++++++++++++++++++++to 8.4179e-06
Heightened Def Con from 8.4179e-06 ++++++++++to 8.4179e-06
Heightened Def Con from 8.4179e-06 to 8.4179e-06
Heightened Def Con from 8.4179e-06 +++++++++++to 8.4179e-06
Heightened Def Con from 8.4179e-06 ++++++++++++++to 8.4179e-06
Heightened Def Con from 8.4179e-06 ++++++++++++++to 8.4179e-06
Heightened Def Con from 8.4179e-06 +++++++++++++to 8.4179e-06
Heightened Def Con from 8.4179e-06 ++++++++++++++++++to 8.4179e-06
Heightened Def Con from 8.4179e-06 ++++++++++++++to 8.4179e-06
Heightened Def Con from 8.4179e-06 ++++++++++++++to 8.4179e-06
Heightened Def Con from 8.4179e-06 ++++++++++to 8.4179e-06
Heightened Def Con from 8.4179e-06 to 8.4179e-06
Heightened Def Con from 8.4179e-06 +++++++++++++to 8.4179e-06
Heightened Def Con from 8.4179e-06 +++++++++++++to 8.4179e-06
Heightened Def Con from 8.4179e-06 +++++++++++to 8.4179e-06
Heightened Def Con from 8.4179e-06 ++++++++++++++to 8.4179e-06
Heightened Def Con from 8.4179e-06 ++++++++++to 8.4179e-06
Heightened Def Con from 8.4179e-06 to 8.4179e-06
Heightened Def Con from 8.4179e-06 +++++++++++++++to 8.4179e-06
Heightened Def Con from 8.4179e-06 +++++++++++++to 8.4179e-06
Heightened Def Con from 8.4179e-06 ++++++++to 8.4179e-06
Heightened Def Con from 8.4179e-06 ++++++++++++++to 8.4179e-06
Heightened Def Con from 8.4179e-06 to 8.4179e-06
Heightened Def Con from 8.4179e-06 +++++++++++++to 8.4179e-06
Heightened Def Con from 8.4179e-06 +++++++++++++to 8.4179e-06
Heightened Def Con from 8.4179e-06 ++++++++++++to 8.4179e-06
Heightened Def Con from 8.4179e-06 to 8.4179e-06
Heightened Def Con from 8.4179e-06 +++++++++++++++to 8.4179e-06
Heightened Def Con from 8.4179e-06 to 8.4179e-06
Heightened Def Con from 8.4179e-06 ++++++++++++++to 8.4179e-06
Heightened Def Con from 8.4179e-06 +++++++++++++to 8.4179e-06
Heightened Def Con from 8.4179e-06 +++++++++++++to 8.4179e-06
Heightened Def Con from 8.4179e-06 to 8.4179e-06
Heightened Def Con from 8.4179e-06 ++++++++++++++to 8.4179e-06
Heightened Def Con from 8.4179e-06 +++++++++++++to 8.4179e-06
Heightened Def Con from 8.4179e-06 +++++++++++++++to 8.4179e-06
Heightened Def Con from 8.4179e-06 +++++++++++++to 8.4179e-06
Heightened Def Con from 8.4179e-06 +++++++to 8.4179e-06
Heightened Def Con from 8.4179e-06 to 8.4179e-06
Heightened Def Con from 8.4179e-06 ++++++++++to 8.4179e-06
Heightened Def Con from 8.4179e-06 ++++++++to 8.4179e-06
Heightened Def Con from 8.4179e-06 to 8.4179e-06
Heightened Def Con from 8.4179e-06 +++++++++++++to 8.4179e-06
Heightened Def Con from 8.4179e-06 +++++++++++++to 8.4179e-06
Heightened Def Con from 8.4179e-06 ++++++++to 8.4179e-06
Heightened Def Con from 8.4179e-06 +++++++++++++to 8.4179e-06
Heightened Def Con from 8.4179e-06 to 8.4179e-06
Heightened Def Con from 8.4179e-06 ++++++++++++++to 8.4179e-06
Heightened Def Con from 8.4179e-06 ++++++++++++to 8.4179e-06
Heightened Def Con from 8.4179e-06 to 8.4179e-06
Heightened Def Con from 8.4179e-06 to 8.4179e-06
Heightened Def Con from 8.4179e-06 to 8.4179e-06
Heightened Def Con from 8.4179e-06 to 8.4179e-06
Heightened Def Con from 8.4179e-06 to 8.4179e-06
Heightened Def Con from 8.4179e-06 to 8.4179e-06
Heightened Def Con from 8.4179e-06 +++++++++++++++to 8.4179e-06
Heightened Def Con from 8.4179e-06 +++++++++++to 8.4179e-06
Heightened Def Con from 8.4179e-06 ++++++++++to 8.4179e-06
Heightened Def Con from 8.4179e-06 +++++++++++++++to 8.4179e-06
Heightened Def Con from 8.4179e-06 to 8.4179e-06
Heightened Def Con from 8.4179e-06 ++++++++++++to 8.4179e-06
Heightened Def Con from 8.4179e-06 ++++++++++++++++++to 8.4179e-06
Heightened Def Con from 8.4179e-06 +++++++++++++++to 8.4179e-06
Heightened Def Con from 8.4179e-06 +++++++++++++++++to 8.4179e-06
Heightened Def Con from 8.4179e-06 ++++++++++to 8.4179e-06
Heightened Def Con from 8.4179e-06 ++++++++++to 8.4179e-06
Heightened Def Con from 8.4179e-06 to 8.4179e-06
Heightened Def Con from 8.4179e-06 to 8.4179e-06
Heightened Def Con from 8.4179e-06 ++++++++++to 8.4179e-06
Heightened Def Con from 8.4179e-06 ++++++++++to 8.4179e-06
Heightened Def Con from 8.4179e-06 ++++++++++to 8.4179e-06
Heightened Def Con from 8.4179e-06 to 8.4179e-06
Heightened Def Con from 8.4179e-06 ++++++++to 8.4179e-06
Heightened Def Con from 8.4179e-06 +++++++++++to 8.4179e-06
Heightened Def Con from 8.4179e-06 ++++++++++to 8.4179e-06
Heightened Def Con from 8.4179e-06 to 8.4179e-06
Heightened Def Con from 8.4179e-06 to 8.4179e-06
Heightened Def Con from 8.4179e-06 ++++++++++++to 8.4179e-06
Heightened Def Con from 8.4179e-06 to 8.4179e-06
Heightened Def Con from 8.4179e-06 ++++++++++to 8.4179e-06
Heightened Def Con from 8.4179e-06 +to 8.4179e-06
Heightened Def Con from 8.4179e-06 ++++++to 8.4179e-06
Heightened Def Con from 8.4179e-06 +++++++to 8.4179e-06
Heightened Def Con from 8.4179e-06 to 8.4179e-06
Heightened Def Con from 8.4179e-06 to 8.4179e-06
Heightened Def Con from 8.4179e-06 to 8.4179e-06
Heightened Def Con from 8.4179e-06 +++++++++to 8.4179e-06
Heightened Def Con from 8.4179e-06 to 8.4179e-06
Heightened Def Con from 8.4179e-06 to 8.4179e-06
Heightened Def Con from 8.4179e-06 ++++++++++++to 8.4179e-06
Heightened Def Con from 8.4179e-06 ++++++++++to 8.4179e-06
Heightened Def Con from 8.4179e-06 ++++++++++to 8.4179e-06
Heightened Def Con from 8.4179e-06 ++++++++to 8.4179e-06
Heightened Def Con from 8.4179e-06 ++++++++to 8.4179e-06
Heightened Def Con from 8.4179e-06 to 8.4179e-06
Heightened Def Con from 8.4179e-06 ++++++++++to 8.4179e-06
Heightened Def Con from 8.4179e-06 +++++++++++++++to 8.4179e-06
Heightened Def Con from 8.4179e-06 to 8.4179e-06
Heightened Def Con from 8.4179e-06 +++++++++++to 8.4179e-06
Heightened Def Con from 8.4179e-06 +++++++++++++++to 8.4179e-06
Heightened Def Con from 8.4179e-06 +++++++++++++++to 8.4179e-06
Heightened Def Con from 8.4179e-06 ++++to 8.4179e-06
Heightened Def Con from 8.4179e-06 ++++++++++to 8.4179e-06
Heightened Def Con from 8.4179e-06 to 8.4179e-06
Heightened Def Con from 8.4179e-06 ++++++++to 8.4179e-06
Heightened Def Con from 8.4179e-06 to 8.4179e-06
Heightened Def Con from 8.4179e-06 to 8.4179e-06
Heightened Def Con from 8.4179e-06 +++++++++++to 8.4179e-06
Heightened Def Con from 8.4179e-06 to 8.4179e-06
Heightened Def Con from 8.4179e-06 ++++++++++to 8.4179e-06
Heightened Def Con from 8.4179e-06 ++++++++to 8.4179e-06
Heightened Def Con from 8.4179e-06 ++++++++++to 8.4179e-06
Heightened Def Con from 8.4179e-06 ++++++++++++++to 8.4179e-06
Heightened Def Con from 8.4179e-06 to 8.4179e-06
Heightened Def Con from 8.4179e-06 ++++++++to 8.4179e-06
Heightened Def Con from 8.4179e-06 +++++++++++++++to 8.4179e-06
Heightened Def Con from 8.4179e-06 ++++++++++++++to 8.4179e-06
Heightened Def Con from 8.4179e-06 +++++++++++++++to 8.4179e-06
Heightened Def Con from 8.4179e-06 +++++++++++++to 8.4179e-06
Heightened Def Con from 8.4179e-06 +++++++++++++++to 8.4179e-06
Heightened Def Con from 8.4179e-06 ++++++++++++++++++to 8.4179e-06
Heightened Def Con from 8.4179e-06 ++++++++++++++++++++++++++to 8.4179e-06
Heightened Def Con from 8.4179e-06 to 8.4179e-06
Heightened Def Con from 8.4179e-06 +++++++to 8.4179e-06
Heightened Def Con from 8.4179e-06 to 8.4179e-06
Heightened Def Con from 8.4179e-06 ++++++++++to 8.4179e-06
Heightened Def Con from 8.4179e-06 +to 8.4179e-06
Heightened Def Con from 8.4179e-06 ++++++++++++++++to 8.4179e-06
Heightened Def Con from 8.4179e-06 ++++++++++++++to 8.4179e-06
Heightened Def Con from 8.4179e-06 ++++++++++to 8.4179e-06
Heightened Def Con from 8.4179e-06 ++++++++to 8.4179e-06
Heightened Def Con from 8.4179e-06 ++++++++++++++++++++++++++to 8.4179e-06
Heightened Def Con from 8.4179e-06 ++++++++++to 8.4179e-06
Heightened Def Con from 8.4179e-06 to 8.4179e-06
Heightened Def Con from 8.4179e-06 to 8.4179e-06
Heightened Def Con from 8.4179e-06 to 8.4179e-06
Heightened Def Con from 8.4179e-06 ++++++++to 8.4179e-06
Heightened Def Con from 8.4179e-06 +++++to 8.4179e-06
Heightened Def Con from 8.4179e-06 to 8.4179e-06
Heightened Def Con from 8.4179e-06 to 8.4179e-06
Heightened Def Con from 8.4179e-06 ++++++++++to 8.4179e-06
Heightened Def Con from 8.4179e-06 to 8.4179e-06
Heightened Def Con from 8.4179e-06 to 8.4179e-06
Heightened Def Con from 8.4179e-06 ++++++++to 8.4179e-06
Heightened Def Con from 8.4179e-06 +++++++to 8.4179e-06
Heightened Def Con from 8.4179e-06 to 8.4179e-06
Heightened Def Con from 8.4179e-06 ++++++++to 8.4179e-06
Heightened Def Con from 8.4179e-06 to 8.4179e-06
Heightened Def Con from 8.4179e-06 to 8.4179e-06
Heightened Def Con from 8.4179e-06 +++++++++++++to 8.4179e-06
Heightened Def Con from 8.4179e-06 +++++++++++++to 8.4179e-06
Heightened Def Con from 8.4179e-06 +++++++++++++++to 8.4179e-06
Heightened Def Con from 8.4179e-06 to 8.4179e-06
Heightened Def Con from 8.4179e-06 ++++++++++to 8.4179e-06
Heightened Def Con from 8.4179e-06 ++++++++to 8.4179e-06
Heightened Def Con from 8.4179e-06 ++++++++++to 8.4179e-06
Heightened Def Con from 8.4179e-06 +++++++++++++to 8.4179e-06
Heightened Def Con from 8.4179e-06 ++++++++to 8.4179e-06
Heightened Def Con from 8.4179e-06 +++++++to 8.4179e-06
Heightened Def Con from 8.4179e-06 to 8.4179e-06
Heightened Def Con from 8.4179e-06 to 8.4179e-06
Heightened Def Con from 8.4179e-06 ++++++++++to 8.4179e-06
Heightened Def Con from 8.4179e-06 to 8.4179e-06
Heightened Def Con from 8.4179e-06 ++++++++++to 8.4179e-06
Heightened Def Con from 8.4179e-06 ++++++++++to 8.4179e-06
Heightened Def Con from 8.4179e-06 to 8.4179e-06
Heightened Def Con from 8.4179e-06 +++++++++++++to 8.4179e-06
Heightened Def Con from 8.4179e-06 +++++++++++to 8.4179e-06
Heightened Def Con from 8.4179e-06 +++++++++++++to 8.4179e-06
Heightened Def Con from 8.4179e-06 ++++to 8.4179e-06
Heightened Def Con from 8.4179e-06 ++++++++++++to 8.4179e-06
Heightened Def Con from 8.4179e-06 to 8.4179e-06
Heightened Def Con from 8.4179e-06 ++++++++++++++to 8.4179e-06
Heightened Def Con from 8.4179e-06 +++++++++++++to 8.4179e-06
Heightened Def Con from 8.4179e-06 ++++++++++++to 8.4179e-06
Heightened Def Con from 8.4179e-06 to 8.4179e-06
Heightened Def Con from 8.4179e-06 ++++++++++++++to 8.4179e-06
Heightened Def Con from 8.4179e-06 ++++++++to 8.4179e-06
Heightened Def Con from 8.4179e-06 ++to 8.4179e-06
Heightened Def Con from 8.4179e-06 +++++++++++++to 8.4179e-06
Heightened Def Con from 8.4179e-06 ++++++++++to 8.4179e-06
Heightened Def Con from 8.4179e-06 to 8.4179e-06
Heightened Def Con from 8.4179e-06 +++++++++++++to 8.4179e-06
Heightened Def Con from 8.4179e-06 +++++++++++++to 8.4179e-06
Heightened Def Con from 8.4179e-06 ++++++++to 8.4179e-06
Heightened Def Con from 8.4179e-06 +++++to 8.4179e-06
Heightened Def Con from 8.4179e-06 +++++++++++++to 8.4179e-06
Heightened Def Con from 8.4179e-06 ++++++++++++to 8.4179e-06
Heightened Def Con from 8.4179e-06 +++++++++++++to 8.4179e-06
Heightened Def Con from 8.4179e-06 to 8.4179e-06
Heightened Def Con from 8.4179e-06 +++++++++++++to 8.4179e-06
Heightened Def Con from 8.4179e-06 +++++++to 8.4179e-06
Heightened Def Con from 8.4179e-06 ++++++++++++to 8.4179e-06
Heightened Def Con from 8.4179e-06 ++++++++to 8.4179e-06
Heightened Def Con from 8.4179e-06 +++++++++++++to 8.4179e-06
Heightened Def Con from 8.4179e-06 +++++++++++++to 8.4179e-06
Heightened Def Con from 8.4179e-06 ++++++++to 8.4179e-06
Heightened Def Con from 8.4179e-06 +++++++++++++to 8.4179e-06
Heightened Def Con from 8.4179e-06 +++++++++++++to 8.4179e-06
Heightened Def Con from 8.4179e-06 ++++++++++++++++++++++++++to 8.4179e-06
Heightened Def Con from 8.4179e-06 +++++++++++++to 8.4179e-06
Heightened Def Con from 8.4179e-06 to 8.4179e-06
Heightened Def Con from 8.4179e-06 ++++++++to 8.4179e-06
Heightened Def Con from 8.4179e-06 +++++++++++++to 8.4179e-06
Heightened Def Con from 8.4179e-06 +++++++++++++to 8.4179e-06
Heightened Def Con from 8.4179e-06 ++++++++++to 8.4179e-06
Heightened Def Con from 8.4179e-06 +++++++++++++to 8.4179e-06
Heightened Def Con from 8.4179e-06 to 8.4179e-06
Heightened Def Con from 8.4179e-06 to 8.4179e-06
Heightened Def Con from 8.4179e-06 ++++to 8.4179e-06
Heightened Def Con from 8.4179e-06 +++++++to 8.4179e-06
Heightened Def Con from 8.4179e-06 +++++++++++++to 8.4179e-06
Heightened Def Con from 8.4179e-06 +++++++++++++to 8.4179e-06
Heightened Def Con from 8.4179e-06 +++++++++++++to 8.4179e-06
Heightened Def Con from 8.4179e-06 to 8.4179e-06
Heightened Def Con from 8.4179e-06 to 8.4179e-06
Heightened Def Con from 8.4179e-06 ++++++++to 8.4179e-06
Heightened Def Con from 8.4179e-06 to 8.4179e-06
Heightened Def Con from 8.4179e-06 ++++++++++++++to 8.4179e-06
Heightened Def Con from 8.4179e-06 +++++++++++++to 8.4179e-06
Heightened Def Con from 8.4179e-06 +++++++++++++++to 8.4179e-06
Heightened Def Con from 8.4179e-06 ++++++++++to 8.4179e-06
Heightened Def Con from 8.4179e-06 to 8.4179e-06
Heightened Def Con from 8.4179e-06 ++++++++to 8.4179e-06
Heightened Def Con from 8.4179e-06 +++++++++++++to 8.4179e-06
Heightened Def Con from 8.4179e-06 +++++++++++++to 8.4179e-06
Heightened Def Con from 8.4179e-06 +++++++++++++to 8.4179e-06
Heightened Def Con from 8.4179e-06 to 8.4179e-06
Heightened Def Con from 8.4179e-06 ++++++++++to 8.4179e-06
Heightened Def Con from 8.4179e-06 ++++++++++++++to 8.4179e-06
Heightened Def Con from 8.4179e-06 +++++++++++++to 8.4179e-06
Heightened Def Con from 8.4179e-06 +++++++++++++to 8.4179e-06
Heightened Def Con from 8.4179e-06 +++++++++++++to 8.4179e-06
Heightened Def Con from 8.4179e-06 +++++++to 8.4179e-06
Heightened Def Con from 8.4179e-06 ++++++++++to 8.4179e-06
Heightened Def Con from 8.4179e-06 ++++++++++to 8.4179e-06
Heightened Def Con from 8.4179e-06 ++++++++++++++to 8.4179e-06
Heightened Def Con from 8.4179e-06 +++++++++++++to 8.4179e-06
Heightened Def Con from 8.4179e-06 ++++++++++++++++++++to 8.4179e-06
Heightened Def Con from 8.4179e-06 ++++++++++to 8.4179e-06
Heightened Def Con from 8.4179e-06 ++++++++to 8.4179e-06
Heightened Def Con from 8.4179e-06 ++++++++++++++to 8.4179e-06
Heightened Def Con from 8.4179e-06 +++++++++++++to 8.4179e-06
Heightened Def Con from 8.4179e-06 ++++++++++++++to 8.4179e-06
Heightened Def Con from 8.4179e-06 +++++++++++++to 8.4179e-06
Heightened Def Con from 8.4179e-06 ++++++++++to 8.4179e-06
Heightened Def Con from 8.4179e-06 ++++++to 8.4179e-06
Heightened Def Con from 8.4179e-06 to 8.4179e-06
Heightened Def Con from 8.4179e-06 ++++++++++to 8.4179e-06
Heightened Def Con from 8.4179e-06 +++++++++++++++to 8.4179e-06
Heightened Def Con from 8.4179e-06 ++++++++++to 8.4179e-06
Heightened Def Con from 8.4179e-06 ++++++++++++++++++to 8.4179e-06
Heightened Def Con from 8.4179e-06 ++++++++++to 8.4179e-06
Heightened Def Con from 8.4179e-06 ++++++++to 8.4179e-06
Heightened Def Con from 8.4179e-06 +++++++++++++to 8.4179e-06
Heightened Def Con from 8.4179e-06 to 8.4179e-06
Heightened Def Con from 8.4179e-06 +++++++++++++to 8.4179e-06
Heightened Def Con from 8.4179e-06 ++++++++to 8.4179e-06
Heightened Def Con from 8.4179e-06 +++++++++++++to 8.4179e-06
Heightened Def Con from 8.4179e-06 ++++++++++to 8.4179e-06
Heightened Def Con from 8.4179e-06 ++++++++++++++to 8.4179e-06
Heightened Def Con from 8.4179e-06 ++++++++++to 8.4179e-06
Heightened Def Con from 8.4179e-06 to 8.4179e-06
Heightened Def Con from 8.4179e-06 ++++++++++to 8.4179e-06
Heightened Def Con from 8.4179e-06 +++++to 8.4179e-06
Total elapsed time: 65.516 seconds.

