LTspice 24.0.12 for Windows
Circuit: * C:\Users\USER\Documents\UAS\Elday\Open Loop Buck.asc
Start Time: Thu Dec 12 22:44:44 2024
solver = Normal
Maximum thread count: 8
tnom = 27
temp = 27
method = modified trap
Limiting rise time of source v2 to 8e-08
Limiting fall time of source v2 to 8e-08
Direct Newton iteration for .op point succeeded.
Total elapsed time: 0.740 seconds.

